
  Mrv0541 06201412482D          

 43 46  0  0  0  0            999 V2000
    5.2401    0.0438    0.0000 C   0  0  0  0  0  0  0  0  0  0  0  0
    5.2401   -0.7812    0.0000 C   0  0  2  0  0  0  0  0  0  0  0  0
    5.9510   -1.1915    0.0000 C   0  0  1  0  0  0  0  0  0  0  0  0
    5.9510    0.4627    0.0000 C   0  0  0  0  0  0  0  0  0  0  0  0
    6.6662    0.0438    0.0000 C   0  0  1  0  0  0  0  0  0  0  0  0
    6.6637   -0.7812    0.0000 C   0  0  1  0  0  0  0  0  0  0  0  0
    7.3741    0.4611    0.0000 C   0  0  2  0  0  0  0  0  0  0  0  0
    8.0905    0.0424    0.0000 C   0  0  1  0  0  0  0  0  0  0  0  0
    9.5233   -0.7727    0.0000 C   0  0  0  0  0  0  0  0  0  0  0  0
    9.5201    0.0510    0.0000 C   0  0  0  0  0  0  0  0  0  0  0  0
    8.7980    0.4663    0.0000 C   0  0  2  0  0  0  0  0  0  0  0  0
    7.4885   -0.7790    0.0000 C   0  0  2  0  0  0  0  0  0  0  0  0
    8.9353   -1.3582    0.0000 C   0  0  2  0  0  0  0  0  0  0  0  0
    8.5087   -2.6928    0.0000 C   0  0  0  0  0  0  0  0  0  0  0  0
    9.2084   -2.1809    0.0000 O   0  0  0  0  0  0  0  0  0  0  0  0
    8.5109   -3.5616    0.0000 O   0  0  0  0  0  0  0  0  0  0  0  0
    7.8056   -2.1870    0.0000 C   0  0  1  0  0  0  0  0  0  0  0  0
    8.0643   -1.3570    0.0000 C   0  0  1  0  0  0  0  0  0  0  0  0
    7.2180   -1.5498    0.0000 O   0  0  0  0  0  0  0  0  0  0  0  0
    6.6550    0.8687    0.0000 C   0  0  0  0  0  0  0  0  0  0  0  0
    7.3707    1.2861    0.0000 O   0  0  0  0  0  0  0  0  0  0  0  0
    6.6585    1.6956    0.0000 C   0  0  0  0  0  0  0  0  0  0  0  0
    6.6552    2.5206    0.0000 C   0  0  0  0  0  0  0  0  0  0  0  0
    5.9413    1.2803    0.0000 O   0  0  0  0  0  0  0  0  0  0  0  0
    8.0826    0.8751    0.0000 O   0  0  0  0  0  0  0  0  0  0  0  0
    8.0804    1.7001    0.0000 C   0  0  0  0  0  0  0  0  0  0  0  0
    8.7919    2.1138    0.0000 C   0  0  0  0  0  0  0  0  0  0  0  0
    7.3625    2.1071    0.0000 O   0  0  0  0  0  0  0  0  0  0  0  0
    8.7931    1.2912    0.0000 O   0  0  0  0  0  0  0  0  0  0  0  0
    9.5074    1.7075    0.0000 C   0  0  0  0  0  0  0  0  0  0  0  0
   10.2225    1.2988    0.0000 O   0  0  0  0  0  0  0  0  0  0  0  0
    9.4982    2.5324    0.0000 C   0  0  0  0  0  0  0  0  0  0  0  0
   10.2318    0.4689    0.0000 C   0  0  0  0  0  0  0  0  0  0  0  0
    6.7746   -1.1851    0.0000 O   0  0  0  0  0  0  0  0  0  0  0  0
    6.7682   -2.0100    0.0000 C   0  0  0  0  0  0  0  0  0  0  0  0
    6.0546   -2.4212    0.0000 C   0  0  0  0  0  0  0  0  0  0  0  0
    7.4797   -2.4280    0.0000 O   0  0  0  0  0  0  0  0  0  0  0  0
    5.9496   -0.3665    0.0000 H   0  0  0  0  0  0  0  0  0  0  0  0
    5.9432   -2.0165    0.0000 C   0  0  0  0  0  0  0  0  0  0  0  0
    7.8004   -3.0530    0.0000 C   0  0  0  0  0  0  0  0  0  0  0  0
    9.7603   -1.3582    0.0000 H   0  0  0  0  0  0  0  0  0  0  0  0
    5.2316   -1.5976    0.0000 O   0  0  0  0  0  0  0  0  0  0  0  0
    4.5263   -1.1952    0.0000 O   0  0  0  0  0  0  0  0  0  0  0  0
  1  4  2  0  0  0  0
  2  3  1  0  0  0  0
  3  6  1  0  0  0  0
  5  4  1  0  0  0  0
  5  6  1  0  0  0  0
  5  7  1  0  0  0  0
  8  7  1  0  0  0  0
  8 11  1  0  0  0  0
  9 10  2  0  0  0  0
 10 11  1  0  0  0  0
  9 13  1  0  0  0  0
  6 12  1  0  0  0  0
 12 18  1  0  0  0  0
 13 18  1  0  0  0  0
 17 14  1  0  0  0  0
 14 15  1  0  0  0  0
 13 15  1  0  0  0  0
 14 16  2  0  0  0  0
 18 17  1  0  0  0  0
 18 19  1  6  0  0  0
 17 19  1  0  0  0  0
  5 20  1  1  0  0  0
  7 21  1  1  0  0  0
 21 22  1  0  0  0  0
 22 23  1  0  0  0  0
 22 24  2  0  0  0  0
  8 25  1  1  0  0  0
 25 26  1  0  0  0  0
 26 27  1  0  0  0  0
 26 28  2  0  0  0  0
 11 29  1  1  0  0  0
 29 30  1  0  0  0  0
 30 31  2  0  0  0  0
 30 32  1  0  0  0  0
 10 33  1  0  0  0  0
 12 34  1  1  0  0  0
 34 35  1  0  0  0  0
 35 36  1  0  0  0  0
 35 37  2  0  0  0  0
  6 38  1  6  0  0  0
  3 39  1  1  0  0  0
 17 40  1  1  0  0  0
 13 41  1  1  0  0  0
  1  2  1  0  0  0  0
  3 42  1  0  0  0  0
  2 43  1  6  0  0  0
M  END
>  <Mol Weight>
580.5776

>  <Formula>
C28H36O13

>  <chembl_id>
CHEMBL503865

$$$$

  Mrv0541 06201412482D          

 42 47  0  0  0  0            999 V2000
   -0.6026   -5.3609    0.0000 C   0  0  0  0  0  0  0  0  0  0  0  0
   -0.6044   -3.7098    0.0000 C   0  0  0  0  0  0  0  0  0  0  0  0
   -1.3160   -4.9464    0.0000 C   0  0  0  0  0  0  0  0  0  0  0  0
   -1.3164   -4.1200    0.0000 C   0  0  0  0  0  0  0  0  0  0  0  0
    0.1137   -4.1164    0.0000 C   0  0  0  0  0  0  0  0  0  0  0  0
    0.1172   -4.9485    0.0000 C   0  0  0  0  0  0  0  0  0  0  0  0
    0.8349   -5.3614    0.0000 C   0  0  0  0  0  0  0  0  0  0  0  0
    0.8281   -3.6972    0.0000 O   0  0  0  0  0  0  0  0  0  0  0  0
    1.5505   -4.1105    0.0000 C   0  0  0  0  0  0  0  0  0  0  0  0
    1.5516   -4.9443    0.0000 C   0  0  0  0  0  0  0  0  0  0  0  0
    2.2697   -5.3600    0.0000 C   0  0  0  0  0  0  0  0  0  0  0  0
    2.2675   -3.6924    0.0000 C   0  0  0  0  0  0  0  0  0  0  0  0
    3.7062   -3.6972    0.0000 C   0  0  0  0  0  0  0  0  0  0  0  0
    3.7080   -2.8649    0.0000 C   0  0  0  0  0  0  0  0  0  0  0  0
    2.9841   -2.4460    0.0000 C   0  0  0  0  0  0  0  0  0  0  0  0
    2.2674   -2.8644    0.0000 C   0  0  0  0  0  0  0  0  0  0  0  0
    1.5539   -2.4512    0.0000 O   0  0  0  0  0  0  0  0  0  0  0  0
    4.4212   -2.4510    0.0000 O   0  0  0  0  0  0  0  0  0  0  0  0
    0.8371   -6.1854    0.0000 O   0  0  0  0  0  0  0  0  0  0  0  0
   -0.6040   -6.1849    0.0000 O   0  0  0  0  0  0  0  0  0  0  0  0
   -2.0297   -3.7105    0.0000 O   0  0  0  0  0  0  0  0  0  0  0  0
    2.9881   -4.1088    0.0000 C   0  0  0  0  0  0  0  0  0  0  0  0
    2.9844   -4.9329    0.0000 C   0  0  0  0  0  0  0  0  0  0  0  0
    3.7668   -5.1924    0.0000 C   0  0  0  0  0  0  0  0  0  0  0  0
    4.2567   -4.5287    0.0000 O   0  0  0  0  0  0  0  0  0  0  0  0
    3.3504   -5.9020    0.0000 C   0  0  0  0  0  0  0  0  0  0  0  0
    4.1744   -5.9020    0.0000 C   0  0  0  0  0  0  0  0  0  0  0  0
   -2.0290   -5.3606    0.0000 C   0  0  0  0  0  0  0  0  0  0  0  0
   -2.0303   -2.8865    0.0000 C   0  0  0  0  0  0  0  0  0  0  0  0
   -1.3176   -2.4719    0.0000 C   0  0  0  0  0  0  0  0  0  0  0  0
   -0.6042   -2.8855    0.0000 C   0  0  0  0  0  0  0  0  0  0  0  0
   -2.4469   -2.1709    0.0000 C   0  0  0  0  0  0  0  0  0  0  0  0
   -2.8568   -2.8819    0.0000 C   0  0  0  0  0  0  0  0  0  0  0  0
   -2.0288   -6.1847    0.0000 C   0  0  0  0  0  0  0  0  0  0  0  0
   -2.7419   -6.5946    0.0000 C   0  0  0  0  0  0  0  0  0  0  0  0
   -2.7417   -7.4187    0.0000 C   0  0  0  0  0  0  0  0  0  0  0  0
   -3.4549   -6.1849    0.0000 C   0  0  0  0  0  0  0  0  0  0  0  0
   -3.4547   -7.8329    0.0000 C   0  0  0  0  0  0  0  0  0  0  0  0
   -3.4545   -8.6569    0.0000 C   0  0  0  0  0  0  0  0  0  0  0  0
   -4.1676   -9.0669    0.0000 C   0  0  0  0  0  0  0  0  0  0  0  0
   -4.1675   -9.8910    0.0000 C   0  0  0  0  0  0  0  0  0  0  0  0
   -4.8807   -8.6571    0.0000 C   0  0  0  0  0  0  0  0  0  0  0  0
  7 19  2  0  0  0  0
  9 10  2  0  0  0  0
  1 20  1  0  0  0  0
  2 31  1  0  0  0  0
  3  1  1  0  0  0  0
  4 21  1  0  0  0  0
 22 23  1  0  0  0  0
  1  6  2  0  0  0  0
  5  6  1  0  0  0  0
  9 12  1  0  0  0  0
 10 11  1  0  0  0  0
 23 24  1  0  0  0  0
 24 25  1  0  0  0  0
 13 25  1  0  0  0  0
 11 23  1  0  0  0  0
 24 26  1  0  0  0  0
 24 27  1  0  0  0  0
 12 22  2  0  0  0  0
  3 28  1  0  0  0  0
  5  2  2  0  0  0  0
 21 29  1  0  0  0  0
 22 13  1  0  0  0  0
 29 30  1  0  0  0  0
  2  4  1  0  0  0  0
 30 31  2  0  0  0  0
 13 14  2  0  0  0  0
 29 32  1  0  0  0  0
  3  4  2  0  0  0  0
 29 33  1  0  0  0  0
 14 15  1  0  0  0  0
 28 34  1  0  0  0  0
  5  8  1  0  0  0  0
 34 35  2  0  0  0  0
 15 16  2  0  0  0  0
 35 36  1  0  0  0  0
 16 12  1  0  0  0  0
 35 37  1  0  0  0  0
  6  7  1  0  0  0  0
 36 38  1  0  0  0  0
 16 17  1  0  0  0  0
 38 39  1  0  0  0  0
  7 10  1  0  0  0  0
 39 40  2  0  0  0  0
 14 18  1  0  0  0  0
 40 41  1  0  0  0  0
  9  8  1  0  0  0  0
 40 42  1  0  0  0  0
M  END
>  <Mol Weight>
570.672

>  <Formula>
C35H38O7

>  <chembl_id>
CHEMBL501923

$$$$

  Mrv0541 06201412482D          

 41 46  0  0  0  0            999 V2000
   -2.8029   -7.7331    0.0000 C   0  0  2  0  0  0  0  0  0  0  0  0
   -1.9771   -7.7331    0.0000 C   0  0  1  0  0  0  0  0  0  0  0  0
   -2.3900   -7.0161    0.0000 C   0  0  0  0  0  0  0  0  0  0  0  0
   -1.4110   -8.3291    0.0000 C   0  0  0  0  0  0  0  0  0  0  0  0
   -1.2704   -7.3060    0.0000 C   0  0  0  0  0  0  0  0  0  0  0  0
   -0.5473   -7.7019    0.0000 N   0  0  0  0  0  0  0  0  0  0  0  0
   -1.2870   -6.4780    0.0000 O   0  0  0  0  0  0  0  0  0  0  0  0
   -1.4091   -9.1540    0.0000 C   0  0  0  0  0  0  0  0  0  0  0  0
   -2.1266   -9.5639    0.0000 C   0  0  0  0  0  0  0  0  0  0  0  0
   -2.1260  -10.3890    0.0000 C   0  0  0  0  0  0  0  0  0  0  0  0
   -1.4099  -10.8020    0.0000 C   0  0  0  0  0  0  0  0  0  0  0  0
   -0.6927  -10.3839    0.0000 C   0  0  0  0  0  0  0  0  0  0  0  0
   -0.6967   -9.5601    0.0000 C   0  0  0  0  0  0  0  0  0  0  0  0
   -3.6038   -7.9458    0.0000 C   0  0  0  0  0  0  0  0  0  0  0  0
   -4.1865   -7.3606    0.0000 N   0  0  0  0  0  0  0  0  0  0  0  0
   -3.8193   -8.7430    0.0000 O   0  0  0  0  0  0  0  0  0  0  0  0
   -4.9846   -7.5726    0.0000 O   0  0  0  0  0  0  0  0  0  0  0  0
   -1.4079  -11.6279    0.0000 O   0  0  0  0  0  0  0  0  0  0  0  0
   -2.1221  -12.0425    0.0000 C   0  0  0  0  0  0  0  0  0  0  0  0
   -2.1201  -12.8684    0.0000 C   0  0  0  0  0  0  0  0  0  0  0  0
   -2.1171  -14.5190    0.0000 N   0  0  0  0  0  0  0  0  0  0  0  0
   -1.4005  -14.0999    0.0000 C   0  0  0  0  0  0  0  0  0  0  0  0
   -1.4057  -13.2762    0.0000 C   0  0  0  0  0  0  0  0  0  0  0  0
   -2.8339  -14.1070    0.0000 C   0  0  0  0  0  0  0  0  0  0  0  0
   -2.8321  -13.2849    0.0000 C   0  0  0  0  0  0  0  0  0  0  0  0
   -3.5419  -12.8742    0.0000 C   0  0  0  0  0  0  0  0  0  0  0  0
   -4.2541  -13.2843    0.0000 C   0  0  0  0  0  0  0  0  0  0  0  0
   -4.2518  -14.1095    0.0000 C   0  0  0  0  0  0  0  0  0  0  0  0
   -3.5414  -14.5165    0.0000 C   0  0  0  0  0  0  0  0  0  0  0  0
   -0.4401   -8.5202    0.0000 C   0  0  0  0  0  0  0  0  0  0  0  0
    0.3700   -8.6733    0.0000 C   0  0  0  0  0  0  0  0  0  0  0  0
    0.7659   -7.9501    0.0000 C   0  0  0  0  0  0  0  0  0  0  0  0
    0.2004   -7.3503    0.0000 C   0  0  1  0  0  0  0  0  0  0  0  0
    0.3545   -6.5388    0.0000 C   0  0  0  0  0  0  0  0  0  0  0  0
    1.1342   -6.2667    0.0000 O   0  0  0  0  0  0  0  0  0  0  0  0
   -0.6855  -14.5068    0.0000 C   0  0  0  0  0  0  0  0  0  0  0  0
   -0.6819  -15.3338    0.0000 C   0  0  0  0  0  0  0  0  0  0  0  0
    0.0348  -15.7424    0.0000 C   0  0  0  0  0  0  0  0  0  0  0  0
    0.7486  -15.3252    0.0000 C   0  0  0  0  0  0  0  0  0  0  0  0
    0.7411  -14.4951    0.0000 C   0  0  0  0  0  0  0  0  0  0  0  0
    0.0236  -14.0902    0.0000 C   0  0  0  0  0  0  0  0  0  0  0  0
 19 20  1  0  0  0  0
 20 25  2  0  0  0  0
  9 10  1  0  0  0  0
 24 21  2  0  0  0  0
  2  5  1  0  0  0  0
 21 22  1  0  0  0  0
 10 11  2  0  0  0  0
 22 23  2  0  0  0  0
 23 20  1  0  0  0  0
 11 12  1  0  0  0  0
 24 25  1  0  0  0  0
  2  1  1  0  0  0  0
 25 26  1  0  0  0  0
 12 13  2  0  0  0  0
 26 27  2  0  0  0  0
 13  8  1  0  0  0  0
 27 28  1  0  0  0  0
  5  6  1  0  0  0  0
 28 29  2  0  0  0  0
 29 24  1  0  0  0  0
  6 30  1  0  0  0  0
  1 14  1  1  0  0  0
  5  7  2  0  0  0  0
 14 15  1  0  0  0  0
  3  2  1  0  0  0  0
 30 31  1  0  0  0  0
 31 32  1  0  0  0  0
 32 33  1  0  0  0  0
 33  6  1  0  0  0  0
 14 16  2  0  0  0  0
 33 34  1  6  0  0  0
  4  8  1  0  0  0  0
 34 35  1  0  0  0  0
 15 17  1  0  0  0  0
  2  4  1  1  0  0  0
 36 37  2  0  0  0  0
 11 18  1  0  0  0  0
 37 38  1  0  0  0  0
  8  9  2  0  0  0  0
 38 39  2  0  0  0  0
 18 19  1  0  0  0  0
 39 40  1  0  0  0  0
  1  3  1  0  0  0  0
 40 41  2  0  0  0  0
 41 36  1  0  0  0  0
 22 36  1  0  0  0  0
M  END
>  <Mol Weight>
551.6322

>  <Formula>
C33H33N3O5

>  <chembl_id>
CHEMBL506057

$$$$

  Mrv0541 06201412482D          

 42 46  0  0  0  0            999 V2000
   -1.4469   -0.9112    0.0000 C   0  0  0  0  0  0  0  0  0  0  0  0
   -1.4444   -1.7385    0.0000 C   0  0  0  0  0  0  0  0  0  0  0  0
   -0.7277   -2.1483    0.0000 C   0  0  0  0  0  0  0  0  0  0  0  0
   -0.0130   -1.7317    0.0000 C   0  0  0  0  0  0  0  0  0  0  0  0
   -0.0196   -0.9011    0.0000 C   0  0  0  0  0  0  0  0  0  0  0  0
   -0.7368   -0.4951    0.0000 C   0  0  0  0  0  0  0  0  0  0  0  0
    0.6916   -0.4826    0.0000 C   0  0  0  0  0  0  0  0  0  0  0  0
    1.4094   -0.8893    0.0000 C   0  0  0  0  0  0  0  0  0  0  0  0
    2.1206   -0.4710    0.0000 C   0  0  0  0  0  0  0  0  0  0  0  0
    2.8384   -0.8777    0.0000 N   0  0  0  0  0  0  0  0  0  0  0  0
    2.8429   -1.7057    0.0000 C   0  0  0  0  0  0  0  0  0  0  0  0
    3.5567   -2.1124    0.0000 C   0  0  0  0  0  0  0  0  0  0  0  0
    4.2702   -1.6974    0.0000 N   0  0  0  0  0  0  0  0  0  0  0  0
    4.2654   -0.8714    0.0000 C   0  0  0  0  0  0  0  0  0  0  0  0
    3.5470   -0.4602    0.0000 C   0  0  0  0  0  0  0  0  0  0  0  0
    4.9866   -2.1068    0.0000 C   0  0  0  0  0  0  0  0  0  0  0  0
    5.6993   -1.6910    0.0000 C   0  0  0  0  0  0  0  0  0  0  0  0
    6.4156   -2.1004    0.0000 C   0  0  0  0  0  0  0  0  0  0  0  0
    7.1282   -1.6847    0.0000 C   0  0  0  0  0  0  0  0  0  0  0  0
    7.8447   -2.0941    0.0000 N   0  0  0  0  0  0  0  0  0  0  0  0
    8.5959   -1.7544    0.0000 C   0  0  0  0  0  0  0  0  0  0  0  0
    9.1460   -2.3656    0.0000 C   0  0  0  0  0  0  0  0  0  0  0  0
    9.9481   -2.1942    0.0000 C   0  0  0  0  0  0  0  0  0  0  0  0
   10.2016   -1.4122    0.0000 C   0  0  0  0  0  0  0  0  0  0  0  0
    9.6463   -0.8014    0.0000 C   0  0  0  0  0  0  0  0  0  0  0  0
    8.8462   -0.9760    0.0000 C   0  0  0  0  0  0  0  0  0  0  0  0
    8.7415   -3.0814    0.0000 C   0  0  0  0  0  0  0  0  0  0  0  0
    7.9378   -2.9133    0.0000 C   0  0  0  0  0  0  0  0  0  0  0  0
    7.3924   -3.5243    0.0000 C   0  0  0  0  0  0  0  0  0  0  0  0
    7.6493   -4.3038    0.0000 C   0  0  0  0  0  0  0  0  0  0  0  0
    8.4567   -4.4687    0.0000 C   0  0  0  0  0  0  0  0  0  0  0  0
    8.9986   -3.8563    0.0000 C   0  0  0  0  0  0  0  0  0  0  0  0
   11.0080   -1.2384    0.0000 N   0  0  0  0  0  0  0  0  0  0  0  0
   11.5618   -1.8499    0.0000 C   0  0  0  0  0  0  0  0  0  0  0  0
   11.3106   -2.6348    0.0000 O   0  0  0  0  0  0  0  0  0  0  0  0
   12.3699   -1.6756    0.0000 C   0  0  0  0  0  0  0  0  0  0  0  0
   12.9212   -2.2921    0.0000 C   0  0  0  0  0  0  0  0  0  0  0  0
   13.7286   -2.1183    0.0000 C   0  0  0  0  0  0  0  0  0  0  0  0
   13.9824   -1.3304    0.0000 C   0  0  0  0  0  0  0  0  0  0  0  0
   13.4226   -0.7163    0.0000 C   0  0  0  0  0  0  0  0  0  0  0  0
   12.6171   -0.8933    0.0000 C   0  0  0  0  0  0  0  0  0  0  0  0
    6.7309   -0.4559    0.0000 Cl  0  0  0  0  0  0  0  0  0  0  0  0
 19 20  1  0  0  0  0
 20 28  1  0  0  0  0
 27 22  1  0  0  0  0
 21 20  1  0  0  0  0
  9 10  1  0  0  0  0
 10 11  1  0  0  0  0
 21 22  2  0  0  0  0
  2  3  1  0  0  0  0
 22 23  1  0  0  0  0
  5  6  2  0  0  0  0
 23 24  2  0  0  0  0
  6  1  1  0  0  0  0
 24 25  1  0  0  0  0
  1  2  2  0  0  0  0
 25 26  2  0  0  0  0
 26 21  1  0  0  0  0
  5  7  1  0  0  0  0
 10 15  1  0  0  0  0
 27 28  2  0  0  0  0
 11 12  1  0  0  0  0
 28 29  1  0  0  0  0
 12 13  1  0  0  0  0
 29 30  2  0  0  0  0
 13 14  1  0  0  0  0
 30 31  1  0  0  0  0
 14 15  1  0  0  0  0
 31 32  2  0  0  0  0
 32 27  1  0  0  0  0
  3  4  2  0  0  0  0
 24 33  1  0  0  0  0
 13 16  1  0  0  0  0
 33 34  1  0  0  0  0
  7  8  2  0  0  0  0
 16 17  1  0  0  0  0
 34 35  2  0  0  0  0
 34 36  1  0  0  0  0
 36 37  2  0  0  0  0
 17 18  1  0  0  0  0
 37 38  1  0  0  0  0
  8  9  1  0  0  0  0
 38 39  2  0  0  0  0
 18 19  1  0  0  0  0
 39 40  1  0  0  0  0
  4  5  1  0  0  0  0
 40 41  2  0  0  0  0
 41 36  1  0  0  0  0
M  END
>  <Mol Weight>
579.174

>  <Formula>
C36H39ClN4O

>  <chembl_id>
CHEMBL444906

$$$$

  Mrv0541 06201412482D          

 33 34  0  0  0  0            999 V2000
    2.8167   -6.1125    0.0000 C   0  0  0  0  0  0  0  0  0  0  0  0
    5.6792   -1.9667    0.0000 N   0  0  0  0  0  0  0  0  0  0  0  0
    3.5417   -5.6917    0.0000 C   0  0  0  0  0  0  0  0  0  0  0  0
    7.8542   -5.7292    0.0000 C   0  0  0  0  0  0  0  0  0  0  0  0
    8.2667   -5.0125    0.0000 C   0  0  0  0  0  0  0  0  0  0  0  0
    5.6792   -1.1417    0.0000 C   0  0  0  0  0  0  0  0  0  0  0  0
    5.6792   -3.6250    0.0000 N   0  0  0  0  0  0  0  0  0  0  0  0
    2.1042   -5.7000    0.0000 C   0  0  0  0  0  0  0  0  0  0  0  0
    4.9667   -2.3792    0.0000 C   0  0  0  0  0  0  0  0  0  0  0  0
    6.4000   -2.3792    0.0000 C   0  0  0  0  0  0  0  0  0  0  0  0
    3.5417   -4.8667    0.0000 O   0  0  0  0  0  0  0  0  0  0  0  0
    8.2667   -6.4417    0.0000 O   0  0  0  0  0  0  0  0  0  0  0  0
    7.8542   -4.3000    0.0000 O   0  0  0  0  0  0  0  0  0  0  0  0
    6.3917   -0.7292    0.0000 C   0  0  0  0  0  0  0  0  0  0  0  0
    4.2542   -6.1042    0.0000 N   0  0  0  0  0  0  0  0  0  0  0  0
    6.4000   -3.2125    0.0000 C   0  0  0  0  0  0  0  0  0  0  0  0
    4.9667   -3.2125    0.0000 C   0  0  0  0  0  0  0  0  0  0  0  0
    7.0250   -5.7292    0.0000 O   0  0  0  0  0  0  0  0  0  0  0  0
    9.0917   -5.0125    0.0000 O   0  0  0  0  0  0  0  0  0  0  0  0
    2.1125   -4.8750    0.0000 I   0  0  0  0  0  0  0  0  0  0  0  0
    2.8167   -6.9375    0.0000 C   0  0  0  0  0  0  0  0  0  0  0  0
    7.1167   -1.1500    0.0000 O   0  0  0  0  0  0  0  0  0  0  0  0
    5.6792   -4.4542    0.0000 C   0  0  0  0  0  0  0  0  0  0  0  0
    4.9667   -4.8667    0.0000 C   0  0  0  0  0  0  0  0  0  0  0  0
    4.9667   -0.7292    0.0000 C   0  0  0  0  0  0  0  0  0  0  0  0
    4.9667   -5.6917    0.0000 C   0  0  0  0  0  0  0  0  0  0  0  0
    1.3917   -6.1125    0.0000 C   0  0  0  0  0  0  0  0  0  0  0  0
    6.3917    0.1000    0.0000 C   0  0  0  0  0  0  0  0  0  0  0  0
    7.1125   -1.9792    0.0000 C   0  0  0  0  0  0  0  0  0  0  0  0
    2.1042   -7.3500    0.0000 C   0  0  0  0  0  0  0  0  0  0  0  0
    4.9667    0.1000    0.0000 C   0  0  0  0  0  0  0  0  0  0  0  0
    5.6792    0.5125    0.0000 C   0  0  0  0  0  0  0  0  0  0  0  0
    1.3917   -6.9375    0.0000 C   0  0  0  0  0  0  0  0  0  0  0  0
  2  9  1  0  0  0  0
  3  1  1  0  0  0  0
  5  4  1  0  0  0  0
  6  2  1  0  0  0  0
  7 23  1  0  0  0  0
  8  1  2  0  0  0  0
  9 17  1  0  0  0  0
 10 16  1  0  0  0  0
 11  3  2  0  0  0  0
 12  4  2  0  0  0  0
 13  5  2  0  0  0  0
 14  6  2  0  0  0  0
 15  3  1  0  0  0  0
 16  7  1  0  0  0  0
 17  7  1  0  0  0  0
 18  4  1  0  0  0  0
 19  5  1  0  0  0  0
 20  8  1  0  0  0  0
 21  1  1  0  0  0  0
 22 14  1  0  0  0  0
 23 24  1  0  0  0  0
 24 26  1  0  0  0  0
 25  6  1  0  0  0  0
 26 15  1  0  0  0  0
 27  8  1  0  0  0  0
 28 14  1  0  0  0  0
 29 22  1  0  0  0  0
 30 21  2  0  0  0  0
 31 25  2  0  0  0  0
 32 31  1  0  0  0  0
 33 27  2  0  0  0  0
 30 33  1  0  0  0  0
 10  2  1  0  0  0  0
 28 32  2  0  0  0  0
M  END
>  <Mol Weight>
569.3894

>  <Formula>
C23H28IN3O6

>  <chembl_id>
CHEMBL263058

$$$$

  Mrv0541 06201412482D          

 42 44  0  0  1  0            999 V2000
    4.8046   -9.2296    0.0000 C   0  0  1  0  0  0  0  0  0  0  0  0
    4.8046  -10.0546    0.0000 C   0  0  2  0  0  0  0  0  0  0  0  0
    5.5173  -10.4610    0.0000 O   0  0  0  0  0  0  0  0  0  0  0  0
    6.2258  -10.0546    0.0000 C   0  0  1  0  0  0  0  0  0  0  0  0
    6.2258   -9.2296    0.0000 C   0  0  0  0  0  0  0  0  0  0  0  0
    5.5173   -8.8108    0.0000 C   0  0  0  0  0  0  0  0  0  0  0  0
    6.9403  -10.4662    0.0000 C   0  0  0  0  0  0  0  0  0  0  0  0
    6.9391  -11.2912    0.0000 N   0  0  0  0  0  0  0  0  0  0  0  0
    4.0884   -8.8170    0.0000 N   0  0  0  0  0  0  0  0  0  0  0  0
    4.0901  -10.4662    0.0000 O   0  0  0  0  0  0  0  0  0  0  0  0
    4.0913  -11.2912    0.0000 C   0  0  1  0  0  0  0  0  0  0  0  0
    3.3698  -11.7036    0.0000 C   0  0  2  0  0  0  0  0  0  0  0  0
    3.3691  -12.5251    0.0000 C   0  0  2  0  0  0  0  0  0  0  0  0
    4.0830  -12.9384    0.0000 C   0  0  1  0  0  0  0  0  0  0  0  0
    4.7992  -12.5281    0.0000 C   0  0  0  0  0  0  0  0  0  0  0  0
    4.8017  -11.7004    0.0000 C   0  0  2  0  0  0  0  0  0  0  0  0
    5.5168  -11.2858    0.0000 N   0  0  0  0  0  0  0  0  0  0  0  0
    4.0799  -13.7585    0.0000 N   0  0  0  0  0  0  0  0  0  0  0  0
    4.7893  -14.1829    0.0000 C   0  0  0  0  0  0  0  0  0  0  0  0
    5.5100  -13.7780    0.0000 O   0  0  0  0  0  0  0  0  0  0  0  0
    4.7780  -15.0078    0.0000 C   0  0  1  0  0  0  0  0  0  0  0  0
    4.0574  -15.4086    0.0000 O   0  0  0  0  0  0  0  0  0  0  0  0
    5.4874  -15.4281    0.0000 C   0  0  0  0  0  0  0  0  0  0  0  0
    5.4762  -16.2531    0.0000 C   0  0  0  0  0  0  0  0  0  0  0  0
    6.1814  -16.6774    0.0000 N   0  0  0  0  0  0  0  0  0  0  0  0
    2.6530  -12.9339    0.0000 O   0  0  0  0  0  0  0  0  0  0  0  0
    1.9389  -12.5218    0.0000 C   0  0  1  0  0  0  0  0  0  0  0  0
    1.9420  -11.6959    0.0000 O   0  0  0  0  0  0  0  0  0  0  0  0
    1.2319  -11.2798    0.0000 C   0  0  1  0  0  0  0  0  0  0  0  0
    0.5176  -11.6892    0.0000 C   0  0  2  0  0  0  0  0  0  0  0  0
    0.5137  -12.5153    0.0000 C   0  0  1  0  0  0  0  0  0  0  0  0
    1.2241  -12.9318    0.0000 C   0  0  1  0  0  0  0  0  0  0  0  0
    1.2369  -10.4546    0.0000 C   0  0  0  0  0  0  0  0  0  0  0  0
   -0.1950  -11.2702    0.0000 O   0  0  0  0  0  0  0  0  0  0  0  0
   -0.2037  -12.9216    0.0000 N   0  0  0  0  0  0  0  0  0  0  0  0
    1.2212  -13.7569    0.0000 O   0  0  0  0  0  0  0  0  0  0  0  0
    2.6562  -11.2864    0.0000 N   0  0  0  0  0  0  0  0  0  0  0  0
    0.5284  -10.0399    0.0000 O   0  0  0  0  0  0  0  0  0  0  0  0
    1.9313  -13.3426    0.0000 H   0  0  0  0  0  0  0  0  0  0  0  0
    4.0914   -9.6441    0.0000 H   0  0  0  0  0  0  0  0  0  0  0  0
    1.9375  -10.8667    0.0000 C   0  0  0  0  0  0  0  0  0  0  0  0
    3.0667  -10.5625    0.0000 C   0  0  0  0  0  0  0  0  0  0  0  0
 19 20  2  0  0  0  0
  2 10  1  0  0  0  0
 19 21  1  0  0  0  0
  3  4  1  0  0  0  0
 21 22  1  6  0  0  0
 11 10  1  6  0  0  0
 21 23  1  0  0  0  0
 11 12  1  0  0  0  0
 23 24  1  0  0  0  0
  4  5  1  0  0  0  0
 24 25  1  0  0  0  0
  5  6  1  0  0  0  0
 13 26  1  6  0  0  0
 27 26  1  0  0  0  0
 27 28  1  0  0  0  0
  4  7  1  1  0  0  0
  1  2  1  0  0  0  0
 11 16  1  0  0  0  0
 12 13  1  0  0  0  0
 13 14  1  0  0  0  0
 27 32  1  0  0  0  0
 28 29  1  0  0  0  0
 29 30  1  0  0  0  0
 30 31  1  0  0  0  0
 31 32  1  0  0  0  0
 14 15  1  0  0  0  0
 29 33  1  1  0  0  0
 15 16  1  0  0  0  0
 30 34  1  6  0  0  0
  7  8  1  0  0  0  0
 31 35  1  1  0  0  0
 16 17  1  1  0  0  0
 32 36  1  6  0  0  0
  1  6  1  0  0  0  0
 12 37  1  6  0  0  0
 14 18  1  1  0  0  0
 33 38  1  0  0  0  0
  1  9  1  6  0  0  0
 27 39  1  1  0  0  0
 18 19  1  0  0  0  0
  2 40  1  1  0  0  0
 37 41  1  0  0  0  0
  2  3  1  0  0  0  0
 37 42  1  0  0  0  0
M  END
>  <Mol Weight>
579.6874

>  <Formula>
C24H49N7O9

>  <chembl_id>
CHEMBL438327

$$$$

  Mrv0541 06201412482D          

 44 46  0  0  0  0            999 V2000
    5.7750   -5.0042    0.0000 N   0  0  0  0  0  0  0  0  0  0  0  0
    5.0542   -5.4167    0.0000 C   0  0  0  0  0  0  0  0  0  0  0  0
    4.3417   -5.0042    0.0000 C   0  0  0  0  0  0  0  0  0  0  0  0
    4.3417   -4.1792    0.0000 C   0  0  0  0  0  0  0  0  0  0  0  0
    3.6292   -5.4167    0.0000 C   0  0  0  0  0  0  0  0  0  0  0  0
    6.4792   -5.4250    0.0000 C   0  0  0  0  0  0  0  0  0  0  0  0
    5.7750   -4.1792    0.0000 C   0  0  0  0  0  0  0  0  0  0  0  0
    2.9167   -5.0042    0.0000 C   0  0  0  0  0  0  0  0  0  0  0  0
    3.6292   -3.7667    0.0000 C   0  0  0  0  0  0  0  0  0  0  0  0
    2.9167   -4.1792    0.0000 C   0  0  0  0  0  0  0  0  0  0  0  0
    5.0542   -6.2417    0.0000 C   0  0  0  0  0  0  0  0  0  0  0  0
    3.6292   -7.8875    0.0000 C   0  0  0  0  0  0  0  0  0  0  0  0
    5.0542   -3.7625    0.0000 C   0  0  0  0  0  0  0  0  0  0  0  0
    2.9042   -7.4750    0.0000 C   0  0  0  0  0  0  0  0  0  0  0  0
    4.3417   -7.4792    0.0000 C   0  0  0  0  0  0  0  0  0  0  0  0
    4.3375   -6.6542    0.0000 C   0  0  0  0  0  0  0  0  0  0  0  0
    6.4792   -6.2500    0.0000 O   0  0  0  0  0  0  0  0  0  0  0  0
    2.9125   -6.6500    0.0000 C   0  0  0  0  0  0  0  0  0  0  0  0
   12.1917   -6.2542    0.0000 C   0  0  0  0  0  0  0  0  0  0  0  0
   12.1917   -5.4292    0.0000 C   0  0  0  0  0  0  0  0  0  0  0  0
    3.6250   -6.2375    0.0000 C   0  0  0  0  0  0  0  0  0  0  0  0
    2.2042   -5.4167    0.0000 O   0  0  0  0  0  0  0  0  0  0  0  0
    2.2042   -3.7667    0.0000 O   0  0  0  0  0  0  0  0  0  0  0  0
    3.6292   -8.7042    0.0000 O   0  0  0  0  0  0  0  0  0  0  0  0
    2.1917   -7.8875    0.0000 O   0  0  0  0  0  0  0  0  0  0  0  0
    7.2000   -5.0167    0.0000 C   0  0  0  0  0  0  0  0  0  0  0  0
   11.4750   -6.6750    0.0000 C   0  0  0  0  0  0  0  0  0  0  0  0
   11.4750   -5.0167    0.0000 C   0  0  0  0  0  0  0  0  0  0  0  0
    1.4875   -4.1792    0.0000 C   0  0  0  0  0  0  0  0  0  0  0  0
    2.2042   -6.2417    0.0000 C   0  0  0  0  0  0  0  0  0  0  0  0
    4.3417   -9.1167    0.0000 C   0  0  0  0  0  0  0  0  0  0  0  0
    2.1917   -8.7125    0.0000 C   0  0  0  0  0  0  0  0  0  0  0  0
    7.9042   -5.4292    0.0000 C   0  0  0  0  0  0  0  0  0  0  0  0
   10.7542   -6.2542    0.0000 C   0  0  0  0  0  0  0  0  0  0  0  0
   10.7542   -5.4292    0.0000 C   0  0  0  0  0  0  0  0  0  0  0  0
    7.2000   -6.6750    0.0000 C   0  0  0  0  0  0  0  0  0  0  0  0
    7.9042   -6.2542    0.0000 C   0  0  0  0  0  0  0  0  0  0  0  0
    9.3375   -6.2542    0.0000 C   0  0  0  0  0  0  0  0  0  0  0  0
   10.0417   -6.6750    0.0000 C   0  0  0  0  0  0  0  0  0  0  0  0
    8.6292   -5.0167    0.0000 C   0  0  0  0  0  0  0  0  0  0  0  0
    8.6292   -6.6750    0.0000 C   0  0  0  0  0  0  0  0  0  0  0  0
   10.0417   -5.0167    0.0000 C   0  0  0  0  0  0  0  0  0  0  0  0
    9.3375   -5.4292    0.0000 C   0  0  0  0  0  0  0  0  0  0  0  0
    7.1917   -7.5000    0.0000 C   0  0  0  0  0  0  0  0  0  0  0  0
  2  1  1  0  0  0  0
  3  2  1  0  0  0  0
  4 13  1  0  0  0  0
  5  3  2  0  0  0  0
  6  1  1  0  0  0  0
  7  1  1  0  0  0  0
  8  5  1  0  0  0  0
  9  4  2  0  0  0  0
 10  9  1  0  0  0  0
 11  2  1  0  0  0  0
 12 15  2  0  0  0  0
 13  7  1  0  0  0  0
 14 18  2  0  0  0  0
 15 16  1  0  0  0  0
 16 11  1  0  0  0  0
 17  6  2  0  0  0  0
 18 21  1  0  0  0  0
 19 20  2  0  0  0  0
 20 28  1  0  0  0  0
 21 16  2  0  0  0  0
 22  8  1  0  0  0  0
 23 10  1  0  0  0  0
 24 12  1  0  0  0  0
 25 14  1  0  0  0  0
 26  6  1  0  0  0  0
 27 19  1  0  0  0  0
 28 35  1  0  0  0  0
 29 23  1  0  0  0  0
 30 22  1  0  0  0  0
 31 24  1  0  0  0  0
 32 25  1  0  0  0  0
 33 26  1  0  0  0  0
 34 27  1  0  0  0  0
 35 42  1  0  0  0  0
 36 37  1  0  0  0  0
 37 41  1  0  0  0  0
 38 39  1  0  0  0  0
 39 34  1  0  0  0  0
 40 33  1  0  0  0  0
 41 38  1  0  0  0  0
 42 43  1  0  0  0  0
 43 40  1  0  0  0  0
 44 36  1  0  0  0  0
  3  4  1  0  0  0  0
  8 10  2  0  0  0  0
 14 12  1  0  0  0  0
M  END
>  <Mol Weight>
607.8629

>  <Formula>
C38H57NO5

>  <chembl_id>
CHEMBL154341

$$$$

  Mrv0541 06201412482D          

 40 45  0  0  0  0            999 V2000
    6.3417    0.2083    0.0000 N   0  0  0  0  0  0  0  0  0  0  0  0
    6.3500   -0.6125    0.0000 C   0  0  0  0  0  0  0  0  0  0  0  0
    7.1250    0.4708    0.0000 N   0  0  0  0  0  0  0  0  0  0  0  0
    7.1292   -0.8625    0.0000 N   0  0  0  0  0  0  0  0  0  0  0  0
    7.6125   -0.1917    0.0000 C   0  0  0  0  0  0  0  0  0  0  0  0
    5.6292    0.6250    0.0000 C   0  0  0  0  0  0  0  0  0  0  0  0
    4.9250    0.2083    0.0000 N   0  0  0  0  0  0  0  0  0  0  0  0
    5.6292   -1.0250    0.0000 C   0  0  0  0  0  0  0  0  0  0  0  0
    4.9250   -0.6167    0.0000 C   0  0  0  0  0  0  0  0  0  0  0  0
    8.4375   -0.1917    0.0000 C   0  0  0  0  0  0  0  0  0  0  0  0
   -0.4125   -0.6042    0.0000 N   0  0  0  0  0  0  0  0  0  0  0  0
   -1.2375   -0.6000    0.0000 C   0  0  0  0  0  0  0  0  0  0  0  0
   -1.6458    0.1208    0.0000 C   0  0  0  0  0  0  0  0  0  0  0  0
    4.2042   -1.0292    0.0000 C   0  0  0  0  0  0  0  0  0  0  0  0
    1.2417   -0.6167    0.0000 N   0  0  0  0  0  0  0  0  0  0  0  0
   -2.4708    0.1250    0.0000 C   0  0  0  0  0  0  0  0  0  0  0  0
    8.9167   -0.8542    0.0000 O   0  0  0  0  0  0  0  0  0  0  0  0
   -1.6500   -1.3125    0.0000 C   0  0  0  0  0  0  0  0  0  0  0  0
    5.6292    1.4500    0.0000 N   0  0  0  0  0  0  0  0  0  0  0  0
    8.9167    0.4833    0.0000 C   0  0  0  0  0  0  0  0  0  0  0  0
    3.4917   -0.6167    0.0000 C   0  0  0  0  0  0  0  0  0  0  0  0
    0.0042    0.1083    0.0000 C   0  0  0  0  0  0  0  0  0  0  0  0
   -0.0083   -1.3250    0.0000 C   0  0  0  0  0  0  0  0  0  0  0  0
    9.7042   -0.5917    0.0000 C   0  0  0  0  0  0  0  0  0  0  0  0
    9.7000    0.2333    0.0000 C   0  0  0  0  0  0  0  0  0  0  0  0
    2.7792   -1.0292    0.0000 C   0  0  0  0  0  0  0  0  0  0  0  0
    2.0667   -0.6167    0.0000 C   0  0  0  0  0  0  0  0  0  0  0  0
    0.8292    0.1083    0.0000 C   0  0  0  0  0  0  0  0  0  0  0  0
    0.8250   -1.3292    0.0000 C   0  0  0  0  0  0  0  0  0  0  0  0
   -2.8833   -0.5875    0.0000 C   0  0  0  0  0  0  0  0  0  0  0  0
   -1.2250    0.8333    0.0000 Cl  0  0  0  0  0  0  0  0  0  0  0  0
   -2.4708   -1.3042    0.0000 C   0  0  0  0  0  0  0  0  0  0  0  0
   -3.7083   -0.5875    0.0000 O   0  0  0  0  0  0  0  0  0  0  0  0
    4.2125   -1.8500    0.0000 C   0  0  0  0  0  0  0  0  0  0  0  0
    3.5042   -2.2667    0.0000 C   0  0  0  0  0  0  0  0  0  0  0  0
   -4.1333   -2.7250    0.0000 O   0  0  0  0  0  0  0  0  0  0  0  0
    2.7792   -1.8542    0.0000 C   0  0  0  0  0  0  0  0  0  0  0  0
   -4.1250   -1.3000    0.0000 C   0  0  0  0  0  0  0  0  0  0  0  0
   -3.7208   -2.0125    0.0000 C   0  0  0  0  0  0  0  0  0  0  0  0
   -3.7208   -3.4417    0.0000 C   0  0  0  0  0  0  0  0  0  0  0  0
  2  1  1  0  0  0  0
  3  1  1  0  0  0  0
  4  2  2  0  0  0  0
  5  3  2  0  0  0  0
  6  1  1  0  0  0  0
  7  6  2  0  0  0  0
  8  2  1  0  0  0  0
  9  7  1  0  0  0  0
 10  5  1  0  0  0  0
 11 23  1  0  0  0  0
 12 11  1  0  0  0  0
 13 12  2  0  0  0  0
 14  9  1  0  0  0  0
 15 27  1  0  0  0  0
 16 13  1  0  0  0  0
 17 10  1  0  0  0  0
 18 12  1  0  0  0  0
 19  6  1  0  0  0  0
 20 10  2  0  0  0  0
 21 14  2  0  0  0  0
 22 28  1  0  0  0  0
 23 29  1  0  0  0  0
 24 17  1  0  0  0  0
 25 20  1  0  0  0  0
 26 21  1  0  0  0  0
 27 26  1  0  0  0  0
 28 15  1  0  0  0  0
 29 15  1  0  0  0  0
 30 32  1  0  0  0  0
 31 13  1  0  0  0  0
 32 18  2  0  0  0  0
 33 30  1  0  0  0  0
 34 14  1  0  0  0  0
 35 34  2  0  0  0  0
 36 39  1  0  0  0  0
 37 35  1  0  0  0  0
 38 33  1  0  0  0  0
 39 38  1  0  0  0  0
 40 36  1  0  0  0  0
  4  5  1  0  0  0  0
  9  8  2  0  0  0  0
 24 25  2  0  0  0  0
 26 37  2  0  0  0  0
 22 11  1  0  0  0  0
 16 30  2  0  0  0  0
M  END
>  <Mol Weight>
560.047

>  <Formula>
C29H30ClN7O3

>  <chembl_id>
CHEMBL262924

$$$$

  Mrv0541 06201412482D          

 43 45  0  0  0  0            999 V2000
    4.7607  -17.3644    0.0000 N   0  0  0  0  0  0  0  0  0  0  0  0
    5.4752  -17.7840    0.0000 C   0  0  0  0  0  0  0  0  0  0  0  0
    2.8082  -17.9751    0.0000 N   0  0  0  0  0  0  0  0  0  0  0  0
    2.0854  -17.5638    0.0000 C   0  0  0  0  0  0  0  0  0  0  0  0
    6.1856  -17.3644    0.0000 C   0  0  0  0  0  0  0  0  0  0  0  0
    1.3751  -17.9834    0.0000 C   0  0  0  0  0  0  0  0  0  0  0  0
    4.3536  -18.0831    0.0000 C   0  0  0  0  0  0  0  0  0  0  0  0
    4.3910  -20.2557    0.0000 C   0  0  0  0  0  0  0  0  0  0  0  0
    7.6146  -16.5294    0.0000 C   0  0  0  0  0  0  0  0  0  0  0  0
   -0.0581  -18.8101    0.0000 C   0  0  0  0  0  0  0  0  0  0  0  0
    3.4396  -17.7508    0.0000 C   0  0  0  0  0  0  0  0  0  0  0  0
    7.6188  -17.3520    0.0000 C   0  0  0  0  0  0  0  0  0  0  0  0
   -0.0581  -17.9876    0.0000 C   0  0  0  0  0  0  0  0  0  0  0  0
    6.8918  -16.1182    0.0000 C   0  0  0  0  0  0  0  0  0  0  0  0
    0.6522  -19.2296    0.0000 C   0  0  0  0  0  0  0  0  0  0  0  0
    4.0794  -17.5888    0.0000 C   0  0  0  0  0  0  0  0  0  0  0  0
    6.1814  -16.5419    0.0000 C   0  0  0  0  0  0  0  0  0  0  0  0
    6.9084  -17.7757    0.0000 C   0  0  0  0  0  0  0  0  0  0  0  0
    0.6522  -17.5721    0.0000 C   0  0  0  0  0  0  0  0  0  0  0  0
    1.3751  -18.8101    0.0000 C   0  0  0  0  0  0  0  0  0  0  0  0
    4.1126  -19.4831    0.0000 O   0  0  0  0  0  0  0  0  0  0  0  0
    3.2153  -17.2523    0.0000 C   0  0  0  0  0  0  0  0  0  0  0  0
    3.8676  -20.8913    0.0000 N   0  0  0  0  0  0  0  0  0  0  0  0
    5.4752  -18.6065    0.0000 O   0  0  0  0  0  0  0  0  0  0  0  0
    4.6360  -18.8557    0.0000 C   0  0  0  0  0  0  0  0  0  0  0  0
    2.0854  -16.7413    0.0000 O   0  0  0  0  0  0  0  0  0  0  0  0
    5.2010  -20.4011    0.0000 O   0  0  0  0  0  0  0  0  0  0  0  0
    8.3291  -16.1140    0.0000 O   0  0  0  0  0  0  0  0  0  0  0  0
   -0.7809  -19.2296    0.0000 O   0  0  0  0  0  0  0  0  0  0  0  0
    8.3374  -17.7715    0.0000 O   0  0  0  0  0  0  0  0  0  0  0  0
    0.6522  -20.0563    0.0000 O   0  0  0  0  0  0  0  0  0  0  0  0
    6.8835  -15.2957    0.0000 O   0  0  0  0  0  0  0  0  0  0  0  0
   -0.7727  -17.5763    0.0000 O   0  0  0  0  0  0  0  0  0  0  0  0
    4.1542  -21.6640    0.0000 C   0  0  0  0  0  0  0  0  0  0  0  0
    3.0575  -20.7542    0.0000 C   0  0  0  0  0  0  0  0  0  0  0  0
   -1.4913  -18.8101    0.0000 C   0  0  0  0  0  0  0  0  0  0  0  0
    9.0395  -16.5170    0.0000 C   0  0  0  0  0  0  0  0  0  0  0  0
   -0.7727  -16.7496    0.0000 C   0  0  0  0  0  0  0  0  0  0  0  0
    7.5938  -14.8719    0.0000 C   0  0  0  0  0  0  0  0  0  0  0  0
    8.3416  -18.5982    0.0000 C   0  0  0  0  0  0  0  0  0  0  0  0
   -0.0581  -20.4676    0.0000 C   0  0  0  0  0  0  0  0  0  0  0  0
    2.7709  -19.9816    0.0000 C   0  0  0  0  0  0  0  0  0  0  0  0
    4.9643  -21.8011    0.0000 C   0  0  0  0  0  0  0  0  0  0  0  0
  2  1  1  0  0  0  0
  3 22  1  0  0  0  0
  4  3  1  0  0  0  0
  5  2  1  0  0  0  0
  6  4  1  0  0  0  0
  7  1  1  0  0  0  0
  8 21  1  0  0  0  0
  9 12  2  0  0  0  0
 10 15  1  0  0  0  0
 11  7  1  0  0  0  0
 12 18  1  0  0  0  0
 13 19  1  0  0  0  0
 14 17  2  0  0  0  0
 15 20  2  0  0  0  0
 16  1  1  0  0  0  0
 17  5  1  0  0  0  0
 18  5  2  0  0  0  0
 19  6  2  0  0  0  0
 20  6  1  0  0  0  0
 21 25  1  0  0  0  0
 22 16  1  0  0  0  0
 23  8  1  0  0  0  0
 24  2  2  0  0  0  0
 25  7  1  0  0  0  0
 26  4  2  0  0  0  0
 27  8  2  0  0  0  0
 28  9  1  0  0  0  0
 29 10  1  0  0  0  0
 30 12  1  0  0  0  0
 31 15  1  0  0  0  0
 32 14  1  0  0  0  0
 33 13  1  0  0  0  0
 34 23  1  0  0  0  0
 35 23  1  0  0  0  0
 36 29  1  0  0  0  0
 37 28  1  0  0  0  0
 38 33  1  0  0  0  0
 39 32  1  0  0  0  0
 40 30  1  0  0  0  0
 41 31  1  0  0  0  0
 42 35  1  0  0  0  0
 43 34  1  0  0  0  0
  3 11  1  0  0  0  0
  9 14  1  0  0  0  0
 13 10  2  0  0  0  0
M  END
>  <Mol Weight>
603.6606

>  <Formula>
C30H41N3O10

>  <chembl_id>
CHEMBL6322

$$$$

  Mrv0541 06201412482D          

 43 45  0  0  0  0            999 V2000
    9.6867   -3.6200    0.0000 N   0  0  0  0  0  0  0  0  0  0  0  0
    5.7369   -2.3173    0.0000 C   0  0  0  0  0  0  0  0  0  0  0  0
    5.0229   -1.9039    0.0000 C   0  0  0  0  0  0  0  0  0  0  0  0
    1.0940   -6.1252    0.0000 N   0  0  0  0  0  0  0  0  0  0  0  0
   10.4007   -3.2066    0.0000 C   0  0  0  0  0  0  0  0  0  0  0  0
    8.2588   -4.4467    0.0000 N   0  0  0  0  0  0  0  0  0  0  0  0
    3.9624   -4.4509    0.0000 C   0  0  0  0  0  0  0  0  0  0  0  0
    3.2484   -4.8726    0.0000 C   0  0  0  0  0  0  0  0  0  0  0  0
    2.5219   -4.4634    0.0000 C   0  0  0  0  0  0  0  0  0  0  0  0
    0.3800   -5.7118    0.0000 C   0  0  0  0  0  0  0  0  0  0  0  0
    8.9728   -3.2066    0.0000 C   0  0  0  0  0  0  0  0  0  0  0  0
    9.6867   -4.4467    0.0000 C   0  0  0  0  0  0  0  0  0  0  0  0
    4.3089   -2.3173    0.0000 O   0  0  0  0  0  0  0  0  0  0  0  0
    6.4551   -1.9039    0.0000 O   0  0  0  0  0  0  0  0  0  0  0  0
    3.9624   -3.6325    0.0000 O   0  0  0  0  0  0  0  0  0  0  0  0
   11.1147   -3.6200    0.0000 C   0  0  0  0  0  0  0  0  0  0  0  0
   10.4007   -2.3799    0.0000 C   0  0  0  0  0  0  0  0  0  0  0  0
    8.2463   -3.6200    0.0000 C   0  0  0  0  0  0  0  0  0  0  0  0
    8.9728   -4.8601    0.0000 C   0  0  0  0  0  0  0  0  0  0  0  0
    1.8205   -4.8851    0.0000 C   0  0  0  0  0  0  0  0  0  0  0  0
    4.6764   -4.8726    0.0000 N   0  0  0  0  0  0  0  0  0  0  0  0
    1.8205   -5.7118    0.0000 C   0  0  0  0  0  0  0  0  0  0  0  0
    5.2358   -1.0940    0.0000 O   0  0  0  0  0  0  0  0  0  0  0  0
    5.7369   -3.1440    0.0000 O   0  0  0  0  0  0  0  0  0  0  0  0
    0.3800   -4.8851    0.0000 C   0  0  0  0  0  0  0  0  0  0  0  0
   -0.3340   -6.1252    0.0000 O   0  0  0  0  0  0  0  0  0  0  0  0
    1.0940   -4.4717    0.0000 C   0  0  0  0  0  0  0  0  0  0  0  0
    7.5448   -4.8601    0.0000 C   0  0  0  0  0  0  0  0  0  0  0  0
    9.6867   -1.9666    0.0000 C   0  0  0  0  0  0  0  0  0  0  0  0
   11.1147   -4.4467    0.0000 C   0  0  0  0  0  0  0  0  0  0  0  0
   11.8287   -3.2066    0.0000 C   0  0  0  0  0  0  0  0  0  0  0  0
   11.1147   -1.9666    0.0000 C   0  0  0  0  0  0  0  0  0  0  0  0
    5.3903   -4.4509    0.0000 C   0  0  0  0  0  0  0  0  0  0  0  0
   -0.3465   -6.9436    0.0000 C   0  0  0  0  0  0  0  0  0  0  0  0
    6.8308   -4.4467    0.0000 C   0  0  0  0  0  0  0  0  0  0  0  0
    6.1169   -4.8643    0.0000 C   0  0  0  0  0  0  0  0  0  0  0  0
   -1.0605   -7.3527    0.0000 C   0  0  0  0  0  0  0  0  0  0  0  0
   11.1147   -1.1399    0.0000 C   0  0  0  0  0  0  0  0  0  0  0  0
    9.6867   -1.1399    0.0000 C   0  0  0  0  0  0  0  0  0  0  0  0
   11.8287   -4.8601    0.0000 C   0  0  0  0  0  0  0  0  0  0  0  0
   12.5426   -3.6117    0.0000 C   0  0  0  0  0  0  0  0  0  0  0  0
   12.5426   -4.4467    0.0000 C   0  0  0  0  0  0  0  0  0  0  0  0
   10.4007   -0.7265    0.0000 C   0  0  0  0  0  0  0  0  0  0  0  0
  3  2  1  0  0  0  0
  4 22  2  0  0  0  0
  5  1  1  0  0  0  0
  6 19  1  0  0  0  0
  7 21  1  0  0  0  0
  8  7  1  0  0  0  0
  9  8  2  0  0  0  0
 10 25  2  0  0  0  0
 11  1  1  0  0  0  0
 12  1  1  0  0  0  0
 13  3  2  0  0  0  0
 14  2  2  0  0  0  0
 15  7  2  0  0  0  0
 16  5  1  0  0  0  0
 17  5  1  0  0  0  0
 18 11  1  0  0  0  0
 19 12  1  0  0  0  0
 20  9  1  0  0  0  0
 21 33  1  0  0  0  0
 22 20  1  0  0  0  0
 23  3  1  0  0  0  0
 24  2  1  0  0  0  0
 25 27  1  0  0  0  0
 26 10  1  0  0  0  0
 27 20  2  0  0  0  0
 28  6  1  0  0  0  0
 29 17  1  0  0  0  0
 30 16  2  0  0  0  0
 31 16  1  0  0  0  0
 32 17  2  0  0  0  0
 33 36  1  0  0  0  0
 34 26  1  0  0  0  0
 35 28  1  0  0  0  0
 36 35  1  0  0  0  0
 37 34  1  0  0  0  0
 38 32  1  0  0  0  0
 39 29  2  0  0  0  0
 40 30  1  0  0  0  0
 41 31  2  0  0  0  0
 42 40  2  0  0  0  0
 43 39  1  0  0  0  0
  6 18  1  0  0  0  0
 38 43  2  0  0  0  0
 41 42  1  0  0  0  0
  4 10  1  0  0  0  0
M  END
>  <Mol Weight>
588.6939

>  <Formula>
C33H40N4O6

>  <chembl_id>
CHEMBL156037

$$$$

  Mrv0541 06201412482D          

 44 50  0  0  0  0            999 V2000
   11.8561  -19.9297    0.0000 C   0  0  0  0  0  0  0  0  0  0  0  0
   10.4129  -15.8092    0.0000 C   0  0  0  0  0  0  0  0  0  0  0  0
   11.1295  -16.2209    0.0000 N   0  0  0  0  0  0  0  0  0  0  0  0
   11.1311  -17.0417    0.0000 C   0  0  2  0  0  0  0  0  0  0  0  0
    9.6963  -16.2239    0.0000 C   0  0  0  0  0  0  0  0  0  0  0  0
    9.7067  -17.0472    0.0000 C   0  0  0  0  0  0  0  0  0  0  0  0
   10.4221  -17.4556    0.0000 C   0  0  0  0  0  0  0  0  0  0  0  0
   10.4246  -18.2790    0.0000 C   0  0  0  0  0  0  0  0  0  0  0  0
    9.7164  -18.6937    0.0000 C   0  0  0  0  0  0  0  0  0  0  0  0
    8.9983  -18.2835    0.0000 C   0  0  0  0  0  0  0  0  0  0  0  0
    8.9955  -17.4604    0.0000 C   0  0  0  0  0  0  0  0  0  0  0  0
    8.2812  -18.6974    0.0000 O   0  0  0  0  0  0  0  0  0  0  0  0
   11.8505  -17.4530    0.0000 C   0  0  0  0  0  0  0  0  0  0  0  0
   11.8539  -18.2801    0.0000 C   0  0  0  0  0  0  0  0  0  0  0  0
   12.5662  -18.6860    0.0000 C   0  0  0  0  0  0  0  0  0  0  0  0
   12.5722  -19.5154    0.0000 C   0  0  0  0  0  0  0  0  0  0  0  0
   11.1361  -19.5124    0.0000 C   0  0  0  0  0  0  0  0  0  0  0  0
   11.1375  -18.6885    0.0000 C   0  0  0  0  0  0  0  0  0  0  0  0
   11.8454  -16.6435    0.0000 H   0  0  0  0  0  0  0  0  0  0  0  0
    8.2797  -17.0501    0.0000 O   0  0  0  0  0  0  0  0  0  0  0  0
    7.5665  -17.4648    0.0000 C   0  0  0  0  0  0  0  0  0  0  0  0
   11.8558  -20.7547    0.0000 O   0  0  0  0  0  0  0  0  0  0  0  0
    4.7126  -16.6431    0.0000 C   0  0  0  0  0  0  0  0  0  0  0  0
    4.7126  -17.4668    0.0000 N   0  0  0  0  0  0  0  0  0  0  0  0
    5.4238  -17.8766    0.0000 C   0  0  2  0  0  0  0  0  0  0  0  0
    5.4238  -16.2249    0.0000 C   0  0  0  0  0  0  0  0  0  0  0  0
    6.1390  -16.6431    0.0000 C   0  0  0  0  0  0  0  0  0  0  0  0
    6.1366  -17.4682    0.0000 C   0  0  0  0  0  0  0  0  0  0  0  0
    6.8503  -17.8782    0.0000 C   0  0  0  0  0  0  0  0  0  0  0  0
    7.5593  -16.6388    0.0000 C   0  0  0  0  0  0  0  0  0  0  0  0
    6.8490  -16.2304    0.0000 C   0  0  0  0  0  0  0  0  0  0  0  0
    5.4256  -18.7046    0.0000 C   0  0  0  0  0  0  0  0  0  0  0  0
    6.1413  -19.1150    0.0000 C   0  0  0  0  0  0  0  0  0  0  0  0
    6.1402  -19.9399    0.0000 C   0  0  0  0  0  0  0  0  0  0  0  0
    6.8589  -20.3543    0.0000 C   0  0  0  0  0  0  0  0  0  0  0  0
    7.5743  -19.9407    0.0000 C   0  0  0  0  0  0  0  0  0  0  0  0
    7.5685  -19.1062    0.0000 C   0  0  0  0  0  0  0  0  0  0  0  0
    6.8531  -18.7017    0.0000 C   0  0  0  0  0  0  0  0  0  0  0  0
    8.2909  -20.3496    0.0000 O   0  0  0  0  0  0  0  0  0  0  0  0
    3.9983  -17.8796    0.0000 C   0  0  0  0  0  0  0  0  0  0  0  0
    4.7042  -18.2833    0.0000 H   0  0  0  0  0  0  0  0  0  0  0  0
    9.7209  -19.5187    0.0000 O   0  0  0  0  0  0  0  0  0  0  0  0
   10.4376  -19.9273    0.0000 C   0  0  0  0  0  0  0  0  0  0  0  0
    8.2715  -16.2226    0.0000 O   0  0  0  0  0  0  0  0  0  0  0  0
 20 21  1  0  0  0  0
  3  4  1  0  0  0  0
  1 22  1  0  0  0  0
  4  7  1  0  0  0  0
  6  5  1  0  0  0  0
  6  7  2  0  0  0  0
  7  8  1  0  0  0  0
  8  9  2  0  0  0  0
  9 10  1  0  0  0  0
 10 11  2  0  0  0  0
 11  6  1  0  0  0  0
 10 12  1  0  0  0  0
  4 13  1  0  0  0  0
 13 14  1  0  0  0  0
 14 15  2  0  0  0  0
 15 16  1  0  0  0  0
 16  1  2  0  0  0  0
  1 17  1  0  0  0  0
 17 18  2  0  0  0  0
 18 14  1  0  0  0  0
 23 24  1  0  0  0  0
 23 26  1  0  0  0  0
 24 25  1  0  0  0  0
 25 28  1  0  0  0  0
 27 26  1  0  0  0  0
 27 28  2  0  0  0  0
 28 29  1  0  0  0  0
 29 21  2  0  0  0  0
 21 30  1  0  0  0  0
 30 31  2  0  0  0  0
 31 27  1  0  0  0  0
 25 32  1  0  0  0  0
 32 33  1  0  0  0  0
 33 34  2  0  0  0  0
 34 35  1  0  0  0  0
 35 36  2  0  0  0  0
 36 37  1  0  0  0  0
 37 38  2  0  0  0  0
 38 33  1  0  0  0  0
 36 39  1  0  0  0  0
 24 40  1  0  0  0  0
  4 19  1  6  0  0  0
 25 41  1  1  0  0  0
 22 37  1  0  0  0  0
  2  3  1  0  0  0  0
  9 42  1  0  0  0  0
 11 20  1  0  0  0  0
 42 43  1  0  0  0  0
  2  5  1  0  0  0  0
 30 44  1  0  0  0  0
M  END
>  <Mol Weight>
566.6436

>  <Formula>
C34H34N2O6

>  <chembl_id>
CHEMBL445000

$$$$

  Mrv0541 06201412482D          

 40 44  0  0  0  0            999 V2000
   -3.7925  -22.9092    0.0000 N   0  0  0  0  0  0  0  0  0  0  0  0
   -3.1249  -23.3945    0.0000 N   0  0  0  0  0  0  0  0  0  0  0  0
   -2.4525  -22.9031    0.0000 C   0  0  0  0  0  0  0  0  0  0  0  0
   -2.7210  -22.1263    0.0000 C   0  0  0  0  0  0  0  0  0  0  0  0
   -3.5407  -22.1248    0.0000 C   0  0  0  0  0  0  0  0  0  0  0  0
   -3.1240  -24.2195    0.0000 C   0  0  0  0  0  0  0  0  0  0  0  0
   -3.8381  -24.6279    0.0000 C   0  0  0  0  0  0  0  0  0  0  0  0
   -3.8376  -25.4524    0.0000 C   0  0  0  0  0  0  0  0  0  0  0  0
   -2.4096  -24.6241    0.0000 C   0  0  0  0  0  0  0  0  0  0  0  0
   -2.4055  -25.4472    0.0000 C   0  0  0  0  0  0  0  0  0  0  0  0
   -3.1208  -25.8681    0.0000 C   0  0  0  0  0  0  0  0  0  0  0  0
   -2.9416  -26.6786    0.0000 O   0  0  0  0  0  0  0  0  0  0  0  0
   -2.1153  -26.7586    0.0000 N   0  0  0  0  0  0  0  0  0  0  0  0
   -1.7840  -25.9975    0.0000 C   0  0  0  0  0  0  0  0  0  0  0  0
   -0.9785  -25.8193    0.0000 N   0  0  0  0  0  0  0  0  0  0  0  0
   -1.7346  -23.3087    0.0000 C   0  0  0  0  0  0  0  0  0  0  0  0
   -1.7262  -24.1339    0.0000 O   0  0  0  0  0  0  0  0  0  0  0  0
   -1.0243  -22.8890    0.0000 C   0  0  0  0  0  0  0  0  0  0  0  0
   -0.3055  -23.2943    0.0000 C   0  0  0  0  0  0  0  0  0  0  0  0
   -0.3005  -24.1193    0.0000 C   0  0  0  0  0  0  0  0  0  0  0  0
    0.4173  -24.5244    0.0000 C   0  0  0  0  0  0  0  0  0  0  0  0
    1.1287  -24.1047    0.0000 C   0  0  0  0  0  0  0  0  0  0  0  0
    1.1177  -23.2753    0.0000 C   0  0  0  0  0  0  0  0  0  0  0  0
    0.3992  -22.8738    0.0000 C   0  0  0  0  0  0  0  0  0  0  0  0
    1.8452  -24.5061    0.0000 C   0  0  0  0  0  0  0  0  0  0  0  0
    1.8533  -25.3323    0.0000 C   0  0  0  0  0  0  0  0  0  0  0  0
    2.5718  -25.7366    0.0000 C   0  0  0  0  0  0  0  0  0  0  0  0
    3.2825  -25.3159    0.0000 C   0  0  0  0  0  0  0  0  0  0  0  0
    3.2704  -24.4865    0.0000 C   0  0  0  0  0  0  0  0  0  0  0  0
    2.5515  -24.0860    0.0000 C   0  0  0  0  0  0  0  0  0  0  0  0
    2.5398  -23.2609    0.0000 S   0  0  0  0  0  0  0  0  0  0  0  0
    3.3625  -23.2139    0.0000 O   0  0  0  0  0  0  0  0  0  0  0  0
    1.7121  -23.3010    0.0000 O   0  0  0  0  0  0  0  0  0  0  0  0
    2.5330  -22.4359    0.0000 C   0  0  0  0  0  0  0  0  0  0  0  0
   -4.0265  -21.4577    0.0000 C   0  0  0  0  0  0  0  0  0  0  0  0
   -3.3587  -20.9655    0.0000 F   0  0  0  0  0  0  0  0  0  0  0  0
   -4.7006  -21.9405    0.0000 F   0  0  0  0  0  0  0  0  0  0  0  0
   -4.5167  -20.7825    0.0000 F   0  0  0  0  0  0  0  0  0  0  0  0
   -1.0326  -22.0641    0.0000 C   0  0  0  0  0  0  0  0  0  0  0  0
    0.3875  -22.0489    0.0000 F   0  0  0  0  0  0  0  0  0  0  0  0
 18 19  1  0  0  0  0
 10  9  2  0  0  0  0
 19 20  2  0  0  0  0
  9  6  1  0  0  0  0
 20 21  1  0  0  0  0
 10 11  1  0  0  0  0
 21 22  2  0  0  0  0
  4  5  1  0  0  0  0
 22 23  1  0  0  0  0
  5  1  2  0  0  0  0
 23 24  2  0  0  0  0
 24 19  1  0  0  0  0
  1  2  1  0  0  0  0
  2  6  1  0  0  0  0
 25 26  2  0  0  0  0
 26 27  1  0  0  0  0
 11 12  1  0  0  0  0
 27 28  2  0  0  0  0
 12 13  1  0  0  0  0
 28 29  1  0  0  0  0
 13 14  2  0  0  0  0
 29 30  2  0  0  0  0
 30 25  1  0  0  0  0
 22 25  1  0  0  0  0
 14 10  1  0  0  0  0
 30 31  1  0  0  0  0
  6  7  2  0  0  0  0
 31 32  2  0  0  0  0
 14 15  1  0  0  0  0
 31 33  2  0  0  0  0
  2  3  1  0  0  0  0
 31 34  1  0  0  0  0
  3 16  1  0  0  0  0
  5 35  1  0  0  0  0
  7  8  1  0  0  0  0
 35 36  1  0  0  0  0
 16 17  2  0  0  0  0
 35 37  1  0  0  0  0
  8 11  2  0  0  0  0
 35 38  1  0  0  0  0
 16 18  1  0  0  0  0
 18 39  1  0  0  0  0
  3  4  2  0  0  0  0
 24 40  1  0  0  0  0
M  END
>  <Mol Weight>
572.531

>  <Formula>
C27H20F4N4O4S

>  <chembl_id>
CHEMBL269191

$$$$

  Mrv0541 06201412482D          

 45 50  0  0  0  0            999 V2000
   13.2131  -11.8804    0.0000 C   0  0  2  0  0  0  0  0  0  0  0  0
   13.2064  -10.2275    0.0000 C   0  0  2  0  0  0  0  0  0  0  0  0
   13.9261  -11.4685    0.0000 C   0  0  2  0  0  0  0  0  0  0  0  0
   13.9253  -10.6402    0.0000 C   0  0  2  0  0  0  0  0  0  0  0  0
   14.7110  -10.3777    0.0000 C   0  0  0  0  0  0  0  0  0  0  0  0
   15.1995  -11.0467    0.0000 O   0  0  0  0  0  0  0  0  0  0  0  0
   14.7191  -11.7215    0.0000 C   0  0  0  0  0  0  0  0  0  0  0  0
   14.9759  -12.5027    0.0000 O   0  0  0  0  0  0  0  0  0  0  0  0
   13.9452  -12.2956    0.0000 H   0  0  0  0  0  0  0  0  0  0  0  0
   13.9155   -9.8209    0.0000 H   0  0  0  0  0  0  0  0  0  0  0  0
   13.2097  -12.7040    0.0000 C   0  0  0  0  0  0  0  0  0  0  0  0
   13.9268  -13.1136    0.0000 C   0  0  0  0  0  0  0  0  0  0  0  0
   13.9279  -13.9365    0.0000 C   0  0  0  0  0  0  0  0  0  0  0  0
   13.2129  -14.3497    0.0000 C   0  0  0  0  0  0  0  0  0  0  0  0
   12.4954  -13.9346    0.0000 C   0  0  0  0  0  0  0  0  0  0  0  0
   12.5017  -13.1129    0.0000 C   0  0  0  0  0  0  0  0  0  0  0  0
   11.7836  -14.3405    0.0000 O   0  0  0  0  0  0  0  0  0  0  0  0
   13.2127  -15.1733    0.0000 O   0  0  0  0  0  0  0  0  0  0  0  0
   14.6393  -14.3474    0.0000 O   0  0  0  0  0  0  0  0  0  0  0  0
   15.3536  -13.9346    0.0000 C   0  0  0  0  0  0  0  0  0  0  0  0
   11.0697  -13.9271    0.0000 C   0  0  0  0  0  0  0  0  0  0  0  0
   12.5103  -12.3085    0.0000 H   0  0  0  0  0  0  0  0  0  0  0  0
   12.4906  -10.6452    0.0000 C   0  0  0  0  0  0  0  0  0  0  0  0
   12.4953  -11.4683    0.0000 C   0  0  0  0  0  0  0  0  0  0  0  0
   11.7841  -11.8823    0.0000 C   0  0  0  0  0  0  0  0  0  0  0  0
   11.7826  -10.2375    0.0000 C   0  0  0  0  0  0  0  0  0  0  0  0
   11.0709  -10.6440    0.0000 C   0  0  0  0  0  0  0  0  0  0  0  0
   11.0705  -11.4668    0.0000 C   0  0  0  0  0  0  0  0  0  0  0  0
   10.2883  -11.7226    0.0000 O   0  0  0  0  0  0  0  0  0  0  0  0
    9.8032  -11.0548    0.0000 C   0  0  0  0  0  0  0  0  0  0  0  0
   10.2889  -10.3877    0.0000 O   0  0  0  0  0  0  0  0  0  0  0  0
   13.2035   -9.4040    0.0000 O   0  0  0  0  0  0  0  0  0  0  0  0
   12.7832   -8.6928    0.0000 C   0  0  1  0  0  0  0  0  0  0  0  0
   11.9548   -8.7085    0.0000 C   0  0  1  0  0  0  0  0  0  0  0  0
   11.5338   -8.0070    0.0000 C   0  0  1  0  0  0  0  0  0  0  0  0
   13.1824   -7.9814    0.0000 O   0  0  0  0  0  0  0  0  0  0  0  0
   11.5554   -9.4304    0.0000 O   0  0  0  0  0  0  0  0  0  0  0  0
   10.7103   -8.0208    0.0000 O   0  0  0  0  0  0  0  0  0  0  0  0
   12.7571   -7.2717    0.0000 C   0  0  1  0  0  0  0  0  0  0  0  0
   11.9300   -7.2865    0.0000 C   0  0  1  0  0  0  0  0  0  0  0  0
   11.5059   -6.5836    0.0000 O   0  0  0  0  0  0  0  0  0  0  0  0
   12.7316   -5.8430    0.0000 O   0  0  0  0  0  0  0  0  0  0  0  0
   13.1600   -6.5499    0.0000 C   0  0  0  0  0  0  0  0  0  0  0  0
   13.9257  -15.5852    0.0000 C   0  0  0  0  0  0  0  0  0  0  0  0
   13.6056   -8.6891    0.0000 H   0  0  0  0  0  0  0  0  0  0  0  0
 17 21  1  0  0  0  0
  1 24  1  0  0  0  0
  1 22  1  1  0  0  0
  4 10  1  6  0  0  0
  1  3  1  0  0  0  0
 23 24  2  0  0  0  0
  1 11  1  0  0  0  0
 24 25  1  0  0  0  0
 25 28  2  0  0  0  0
 23  2  1  0  0  0  0
 27 26  2  0  0  0  0
 26 23  1  0  0  0  0
 27 28  1  0  0  0  0
 11 12  2  0  0  0  0
  2  4  1  0  0  0  0
 12 13  1  0  0  0  0
  4  5  1  0  0  0  0
 13 14  2  0  0  0  0
 28 29  1  0  0  0  0
 29 30  1  0  0  0  0
 30 31  1  0  0  0  0
 31 27  1  0  0  0  0
  5  6  1  0  0  0  0
  2 32  1  6  0  0  0
 14 15  1  0  0  0  0
 33 32  1  0  0  0  0
 33 34  1  0  0  0  0
  6  7  1  0  0  0  0
 15 16  2  0  0  0  0
 16 11  1  0  0  0  0
 33 36  1  0  0  0  0
 34 35  1  0  0  0  0
 35 40  1  0  0  0  0
 39 36  1  0  0  0  0
  7  3  1  0  0  0  0
 34 37  1  6  0  0  0
 15 17  1  0  0  0  0
 35 38  1  1  0  0  0
 39 40  1  0  0  0  0
  3  4  1  0  0  0  0
 14 18  1  0  0  0  0
  7  8  2  0  0  0  0
 13 19  1  0  0  0  0
 39 43  1  1  0  0  0
 40 41  1  6  0  0  0
 42 43  1  0  0  0  0
 19 20  1  0  0  0  0
 18 44  1  0  0  0  0
  3  9  1  1  0  0  0
 33 45  1  6  0  0  0
M  END
>  <Mol Weight>
576.5459

>  <Formula>
C28H32O13

>  <chembl_id>
CHEMBL503644

$$$$

  Mrv0541 06201412482D          
 
 42 45  0  0  0  0            999 V2000
    0.3757    1.3227    0.0000 C   0  0  0  0  0  0  0  0  0  0  0  0
    1.7866   -0.0879    0.0000 C   0  0  0  0  0  0  0  0  0  0  0  0
    1.7864    0.7386    0.0000 C   0  0  0  0  0  0  0  0  0  0  0  0
    1.2021    1.3229    0.0000 C   0  0  2  0  0  0  0  0  0  0  0  0
   -0.2002   -0.0895    0.0000 C   0  0  1  0  0  0  0  0  0  0  0  0
   -0.2062    0.7386    0.0000 C   0  0  1  0  0  0  0  0  0  0  0  0
   -1.0283   -0.0955    0.0000 C   0  0  2  0  0  0  0  0  0  0  0  0
   -1.0321    0.7332    0.0000 C   0  0  2  0  0  0  0  0  0  0  0  0
   -1.7450    1.1429    0.0000 C   0  0  2  0  0  0  0  0  0  0  0  0
   -2.4593    0.7302    0.0000 C   0  0  0  0  0  0  0  0  0  0  0  0
   -2.4578   -0.0991    0.0000 C   0  0  0  0  0  0  0  0  0  0  0  0
    1.2021   -0.6657    0.0000 C   0  0  1  0  0  0  0  0  0  0  0  0
    0.3776   -0.6667    0.0000 C   0  0  1  0  0  0  0  0  0  0  0  0
    0.1207   -1.4500    0.0000 C   0  0  2  0  0  0  0  0  0  0  0  0
    0.7894   -1.9343    0.0000 C   0  0  0  0  0  0  0  0  0  0  0  0
    1.4566   -1.4483    0.0000 O   0  0  0  0  0  0  0  0  0  0  0  0
    0.7906   -2.7569    0.0000 O   0  0  0  0  0  0  0  0  0  0  0  0
   -0.2097    1.5625    0.0000 O   0  0  0  0  0  0  0  0  0  0  0  0
   -0.7171   -2.2371    0.0000 O   0  0  0  0  0  0  0  0  0  0  0  0
   -1.0324    1.5603    0.0000 C   0  0  0  0  0  0  0  0  0  0  0  0
   -1.7460    1.9700    0.0000 O   0  0  0  0  0  0  0  0  0  0  0  0
   -2.4606    2.3782    0.0000 C   0  0  0  0  0  0  0  0  0  0  0  0
   -2.4623    3.1995    0.0000 O   0  0  0  0  0  0  0  0  0  0  0  0
   -3.1749    1.9669    0.0000 C   0  0  0  0  0  0  0  0  0  0  0  0
   -0.2229    2.3889    0.0000 C   0  0  0  0  0  0  0  0  0  0  0  0
   -1.5058   -2.4706    0.0000 C   0  0  0  0  0  0  0  0  0  0  0  0
   -2.0892   -1.8872    0.0000 O   0  0  0  0  0  0  0  0  0  0  0  0
   -1.7201   -3.2685    0.0000 C   0  0  0  0  0  0  0  0  0  0  0  0
   -0.0959   -2.2419    0.0000 C   0  0  0  0  0  0  0  0  0  0  0  0
    0.7813    0.0486    0.0000 O   0  0  0  0  0  0  0  0  0  0  0  0
    2.0239   -0.6647    0.0000 H   0  0  0  0  0  0  0  0  0  0  0  0
   -1.0324   -0.9141    0.0000 H   0  0  0  0  0  0  0  0  0  0  0  0
    1.7760    1.9138    0.0000 O   0  0  0  0  0  0  0  0  0  0  0  0
    2.3951    2.4572    0.0000 C   0  0  0  0  0  0  0  0  0  0  0  0
    0.4808    2.8152    0.0000 O   0  0  0  0  0  0  0  0  0  0  0  0
   -0.9444    2.7892    0.0000 C   0  0  0  0  0  0  0  0  0  0  0  0
    3.1749    2.1959    0.0000 O   0  0  0  0  0  0  0  0  0  0  0  0
    2.2338    3.2685    0.0000 C   0  0  0  0  0  0  0  0  0  0  0  0
   -1.7387   -1.3299    0.0000 C   0  0  0  0  0  0  0  0  0  0  0  0
   -1.7405   -0.5081    0.0000 C   0  0  2  0  0  0  0  0  0  0  0  0
   -2.4513   -0.9204    0.0000 O   0  0  0  0  0  0  0  0  0  0  0  0
    2.5451    1.0522    0.0000 C   0  0  0  0  0  0  0  0  0  0  0  0
  7  5  1  0  0  0  0
  7  8  1  0  0  0  0
  8  9  1  0  0  0  0
  9 10  1  0  0  0  0
 10 11  1  0  0  0  0
 11 40  1  0  0  0  0
 40  7  1  0  0  0  0
 12 13  1  0  0  0  0
 13 14  1  0  0  0  0
 14 15  1  0  0  0  0
 15 16  1  0  0  0  0
 16 12  1  0  0  0  0
 15 17  2  0  0  0  0
  6 18  1  6  0  0  0
  5 19  1  6  0  0  0
  8 20  1  1  0  0  0
  9 21  1  6  0  0  0
 21 22  1  0  0  0  0
 22 23  2  0  0  0  0
 22 24  1  0  0  0  0
 18 25  1  0  0  0  0
 19 26  1  0  0  0  0
 26 27  2  0  0  0  0
 26 28  1  0  0  0  0
 14 29  1  6  0  0  0
 13 30  1  6  0  0  0
 12 31  1  1  0  0  0
  7 32  1  6  0  0  0
  3 42  1  0  0  0  0
  4 33  1  1  0  0  0
 33 34  1  0  0  0  0
  6  1  1  0  0  0  0
 25 35  2  0  0  0  0
 25 36  1  0  0  0  0
  5 13  1  0  0  0  0
 12  2  1  0  0  0  0
 34 37  2  0  0  0  0
 34 38  1  0  0  0  0
 40 39  1  0  0  0  0
 40 41  1  6  0  0  0
 39 41  1  0  0  0  0
  2  3  2  0  0  0  0
  3  4  1  0  0  0  0
  4  1  1  0  0  0  0
  6  8  1  0  0  0  0
M  END
>  <Mol Weight>
566.5941

>  <Formula>
C28H38O12

>  <chembl_id>
CHEMBL502640

$$$$

  Mrv0541 06201412482D          

 39 43  0  0  0  0            999 V2000
    6.6930   -2.3674    0.0000 N   0  0  0  0  0  0  0  0  0  0  0  0
    6.0124   -1.9833    0.0000 C   0  0  0  0  0  0  0  0  0  0  0  0
    6.0124   -1.2192    0.0000 N   0  0  0  0  0  0  0  0  0  0  0  0
    4.0834   -1.8956    0.0000 P   0  0  0  0  0  0  0  0  0  0  0  0
    7.3569   -1.9666    0.0000 C   0  0  0  0  0  0  0  0  0  0  0  0
    7.3569   -1.2192    0.0000 C   0  0  0  0  0  0  0  0  0  0  0  0
    6.6930   -0.8309    0.0000 C   0  0  0  0  0  0  0  0  0  0  0  0
    6.6930   -3.6200    0.0000 C   0  0  0  0  0  0  0  0  0  0  0  0
    3.3612   -2.3048    0.0000 O   0  0  0  0  0  0  0  0  0  0  0  0
    5.7411   -3.1064    0.0000 O   0  0  0  0  0  0  0  0  0  0  0  0
    4.0877   -1.0647    0.0000 O   0  0  0  0  0  0  0  0  0  0  0  0
    2.6472   -1.0564    0.0000 C   0  0  0  0  0  0  0  0  0  0  0  0
    2.6472   -1.8914    0.0000 C   0  0  0  0  0  0  0  0  0  0  0  0
    6.3173   -4.3256    0.0000 C   0  0  0  0  0  0  0  0  0  0  0  0
    4.2964   -2.6931    0.0000 O   0  0  0  0  0  0  0  0  0  0  0  0
    4.8768   -1.6702    0.0000 O   0  0  0  0  0  0  0  0  0  0  0  0
    5.3611   -2.3841    0.0000 O   0  0  0  0  0  0  0  0  0  0  0  0
    5.1899   -4.3256    0.0000 C   0  0  0  0  0  0  0  0  0  0  0  0
   -0.1712    0.6346    0.0000 C   0  0  0  0  0  0  0  0  0  0  0  0
    3.3612   -0.6430    0.0000 C   0  0  0  0  0  0  0  0  0  0  0  0
    6.6930   -0.0794    0.0000 O   0  0  0  0  0  0  0  0  0  0  0  0
    1.9332   -0.6430    0.0000 C   0  0  0  0  0  0  0  0  0  0  0  0
    4.8392   -3.6200    0.0000 C   0  0  0  0  0  0  0  0  0  0  0  0
   -0.1461    1.4613    0.0000 O   0  0  0  0  0  0  0  0  0  0  0  0
    4.8392   -2.9478    0.0000 C   0  0  0  0  0  0  0  0  0  0  0  0
    1.9332   -2.2964    0.0000 C   0  0  0  0  0  0  0  0  0  0  0  0
   -0.8977    0.2338    0.0000 O   0  0  0  0  0  0  0  0  0  0  0  0
    1.2275   -1.0564    0.0000 C   0  0  0  0  0  0  0  0  0  0  0  0
    0.5386    0.2004    0.0000 C   0  0  0  0  0  0  0  0  0  0  0  0
    8.0584   -0.8142    0.0000 C   0  0  0  0  0  0  0  0  0  0  0  0
   -1.5991    0.6639    0.0000 C   0  0  0  0  0  0  0  0  0  0  0  0
    1.2192   -1.8789    0.0000 C   0  0  0  0  0  0  0  0  0  0  0  0
    0.5178   -0.6263    0.0000 C   0  0  0  0  0  0  0  0  0  0  0  0
   -2.3256    0.2714    0.0000 C   0  0  0  0  0  0  0  0  0  0  0  0
   -2.3381   -0.5553    0.0000 C   0  0  0  0  0  0  0  0  0  0  0  0
   -3.0271    0.7015    0.0000 C   0  0  0  0  0  0  0  0  0  0  0  0
   -3.7536    0.3089    0.0000 C   0  0  0  0  0  0  0  0  0  0  0  0
   -3.0646   -0.9520    0.0000 C   0  0  0  0  0  0  0  0  0  0  0  0
   -3.7786   -0.5178    0.0000 C   0  0  0  0  0  0  0  0  0  0  0  0
  2  1  1  0  0  0  0
  3  2  1  0  0  0  0
  4 15  1  0  0  0  0
  5  1  1  0  0  0  0
  6  5  2  0  0  0  0
  7  6  1  0  0  0  0
  8  1  1  0  0  0  0
  9  4  1  0  0  0  0
 10  8  1  0  0  0  0
 11  4  1  0  0  0  0
 12 20  1  0  0  0  0
 13  9  1  0  0  0  0
 14  8  1  0  0  0  0
 15 25  1  0  0  0  0
 16  4  2  0  0  0  0
 17  2  2  0  0  0  0
 18 14  2  0  0  0  0
 19 29  1  0  0  0  0
 20 11  1  0  0  0  0
 21  7  2  0  0  0  0
 22 12  2  0  0  0  0
 23 10  1  0  0  0  0
 24 19  2  0  0  0  0
 25 23  1  0  0  0  0
 26 13  2  0  0  0  0
 27 19  1  0  0  0  0
 28 22  1  0  0  0  0
 29 33  1  0  0  0  0
 30  6  1  0  0  0  0
 31 27  1  0  0  0  0
 32 26  1  0  0  0  0
 33 28  1  0  0  0  0
 34 31  1  0  0  0  0
 35 34  1  0  0  0  0
 36 34  2  0  0  0  0
 37 36  1  0  0  0  0
 38 35  2  0  0  0  0
 39 37  2  0  0  0  0
 23 18  1  0  0  0  0
  3  7  1  0  0  0  0
 12 13  1  0  0  0  0
 28 32  2  0  0  0  0
 39 38  1  0  0  0  0
M  END
>  <Mol Weight>
554.485

>  <Formula>
C27H27N2O9P

>  <chembl_id>
CHEMBL262299

$$$$

  Mrv0541 06201412482D          

 42 45  0  0  0  0            999 V2000
    0.8643  -25.8751    0.0000 C   0  0  1  0  0  0  0  0  0  0  0  0
    0.7694  -26.6943    0.0000 C   0  0  2  0  0  0  0  0  0  0  0  0
   -0.0362  -26.8609    0.0000 C   0  0  2  0  0  0  0  0  0  0  0  0
   -0.4389  -26.1369    0.0000 C   0  0  1  0  0  0  0  0  0  0  0  0
    0.1186  -25.5346    0.0000 O   0  0  0  0  0  0  0  0  0  0  0  0
   -1.2586  -26.0438    0.0000 C   0  0  0  0  0  0  0  0  0  0  0  0
    0.8847  -27.5153    0.0000 O   0  0  0  0  0  0  0  0  0  0  0  0
    1.6491  -27.8230    0.0000 C   0  0  0  0  0  0  0  0  0  0  0  0
    1.7601  -28.6416    0.0000 O   0  0  0  0  0  0  0  0  0  0  0  0
    2.2949  -27.3190    0.0000 C   0  0  0  0  0  0  0  0  0  0  0  0
   -1.7686  -26.6918    0.0000 O   0  0  0  0  0  0  0  0  0  0  0  0
   -2.5830  -26.5750    0.0000 C   0  0  0  0  0  0  0  0  0  0  0  0
   -3.0886  -27.2244    0.0000 O   0  0  0  0  0  0  0  0  0  0  0  0
   -2.8874  -25.8102    0.0000 C   0  0  0  0  0  0  0  0  0  0  0  0
    1.5821  -25.4703    0.0000 O   0  0  0  0  0  0  0  0  0  0  0  0
    2.2183  -23.8111    0.0000 C   0  0  0  0  0  0  0  0  0  0  0  0
    2.2303  -24.6398    0.0000 C   0  0  0  0  0  0  0  0  0  0  0  0
    2.9486  -25.0418    0.0000 C   0  0  2  0  0  0  0  0  0  0  0  0
    2.9261  -23.3842    0.0000 C   0  0  0  0  0  0  0  0  0  0  0  0
    3.6503  -23.7903    0.0000 C   0  0  1  0  0  0  0  0  0  0  0  0
    3.6633  -24.6190    0.0000 C   0  0  1  0  0  0  0  0  0  0  0  0
    4.3834  -25.0198    0.0000 C   0  0  0  0  0  0  0  0  0  0  0  0
    5.0953  -24.5965    0.0000 C   0  0  0  0  0  0  0  0  0  0  0  0
    4.3573  -23.3625    0.0000 C   0  0  2  0  0  0  0  0  0  0  0  0
    5.0848  -23.7669    0.0000 C   0  0  2  0  0  0  0  0  0  0  0  0
    5.7948  -23.3414    0.0000 O   0  0  0  0  0  0  0  0  0  0  0  0
    5.7836  -22.5099    0.0000 C   0  0  2  0  0  0  0  0  0  0  0  0
    5.0561  -22.1055    0.0000 C   0  0  0  0  0  0  0  0  0  0  0  0
    4.3398  -22.5328    0.0000 C   0  0  0  0  0  0  0  0  0  0  0  0
    4.3621  -24.1831    0.0000 H   0  0  0  0  0  0  0  0  0  0  0  0
    3.3341  -25.7651    0.0000 C   0  0  0  0  0  0  0  0  0  0  0  0
    6.4960  -22.9112    0.0000 C   0  0  0  0  0  0  0  0  0  0  0  0
    5.9795  -21.7098    0.0000 C   0  0  0  0  0  0  0  0  0  0  0  0
    6.7708  -21.4794    0.0000 C   0  0  0  0  0  0  0  0  0  0  0  0
    2.3873  -25.6487    0.0000 C   0  0  0  0  0  0  0  0  0  0  0  0
    5.6912  -24.3175    0.0000 C   0  0  0  0  0  0  0  0  0  0  0  0
    3.6033  -22.9669    0.0000 C   0  0  0  0  0  0  0  0  0  0  0  0
   -0.6547  -25.3386    0.0000 H   0  0  0  0  0  0  0  0  0  0  0  0
    3.6584  -25.4394    0.0000 H   0  0  0  0  0  0  0  0  0  0  0  0
   -1.5477  -25.2694    0.0000 O   0  0  0  0  0  0  0  0  0  0  0  0
   -0.3837  -27.6087    0.0000 O   0  0  0  0  0  0  0  0  0  0  0  0
    1.5314  -27.0053    0.0000 O   0  0  0  0  0  0  0  0  0  0  0  0
 20 19  1  0  0  0  0
 20 21  1  0  0  0  0
  4  5  1  0  0  0  0
  4  6  1  0  0  0  0
  1  5  1  0  0  0  0
 20 24  1  0  0  0  0
 21 22  1  0  0  0  0
 22 23  1  0  0  0  0
 23 25  1  0  0  0  0
 24 25  1  0  0  0  0
  2  7  1  0  0  0  0
  7  8  1  0  0  0  0
  8  9  2  0  0  0  0
  8 10  1  0  0  0  0
  6 11  1  0  0  0  0
 24 29  1  0  0  0  0
 25 26  1  0  0  0  0
 26 27  1  0  0  0  0
 27 28  1  0  0  0  0
 28 29  1  0  0  0  0
 11 12  1  0  0  0  0
 24 30  1  6  0  0  0
 12 13  2  0  0  0  0
 18 31  1  0  0  0  0
 12 14  1  0  0  0  0
 27 32  1  0  0  0  0
 27 33  1  1  0  0  0
  1 15  1  1  0  0  0
 33 34  2  0  0  0  0
 16 17  1  0  0  0  0
 18 35  1  1  0  0  0
 35 15  1  0  0  0  0
  1  2  1  0  0  0  0
 25 36  1  1  0  0  0
  2  3  1  0  0  0  0
 20 37  1  1  0  0  0
  4 38  1  1  0  0  0
  3  4  1  0  0  0  0
 21 39  1  6  0  0  0
 16 19  1  0  0  0  0
 17 18  1  0  0  0  0
 18 21  1  0  0  0  0
  3 41  1  1  0  0  0
  6 40  1  0  0  0  0
  2 42  1  6  0  0  0
M  END
>  <Mol Weight>
554.6695

>  <Formula>
C29H46O10

>  <chembl_id>
CHEMBL505923

$$$$

  Mrv0541 06201412482D          

 44 46  0  0  0  0            999 V2000
   -2.9762  -24.9308    0.0000 C   0  0  0  0  0  0  0  0  0  0  0  0
   -2.2596  -26.1805    0.0000 O   0  0  0  0  0  0  0  0  0  0  0  0
   -2.2596  -25.3479    0.0000 C   0  0  0  0  0  0  0  0  0  0  0  0
   -1.5338  -24.9308    0.0000 N   0  0  0  0  0  0  0  0  0  0  0  0
   -4.4033  -24.9314    0.0000 C   0  0  0  0  0  0  0  0  0  0  0  0
   -5.1172  -25.3487    0.0000 O   0  0  0  0  0  0  0  0  0  0  0  0
   -4.4035  -24.1064    0.0000 C   0  0  0  0  0  0  0  0  0  0  0  0
   -0.8215  -25.3464    0.0000 C   0  0  1  0  0  0  0  0  0  0  0  0
   -1.5349  -24.1058    0.0000 C   0  0  0  0  0  0  0  0  0  0  0  0
   -0.8239  -26.1748    0.0000 C   0  0  0  0  0  0  0  0  0  0  0  0
   -0.1011  -24.9368    0.0000 C   0  0  0  0  0  0  0  0  0  0  0  0
    0.6159  -25.3524    0.0000 O   0  0  0  0  0  0  0  0  0  0  0  0
   -0.0975  -24.1073    0.0000 N   0  0  0  0  0  0  0  0  0  0  0  0
   -0.1263  -26.6116    0.0000 C   0  0  0  0  0  0  0  0  0  0  0  0
   -0.1584  -27.4318    0.0000 C   0  0  0  0  0  0  0  0  0  0  0  0
    0.5380  -27.8731    0.0000 C   0  0  0  0  0  0  0  0  0  0  0  0
    1.2648  -27.4868    0.0000 C   0  0  0  0  0  0  0  0  0  0  0  0
    1.2927  -26.6610    0.0000 C   0  0  0  0  0  0  0  0  0  0  0  0
    0.5952  -26.2258    0.0000 C   0  0  0  0  0  0  0  0  0  0  0  0
    0.6183  -23.6979    0.0000 C   0  0  2  0  0  0  0  0  0  0  0  0
   -0.8144  -23.6918    0.0000 C   0  0  0  0  0  0  0  0  0  0  0  0
    1.3353  -24.1134    0.0000 C   0  0  0  0  0  0  0  0  0  0  0  0
    2.0512  -23.6994    0.0000 N   0  0  0  0  0  0  0  0  0  0  0  0
    1.3318  -24.9384    0.0000 O   0  0  0  0  0  0  0  0  0  0  0  0
    0.6219  -22.8683    0.0000 C   0  0  0  0  0  0  0  0  0  0  0  0
    1.2008  -22.2763    0.0000 C   0  0  0  0  0  0  0  0  0  0  0  0
    2.0086  -22.4917    0.0000 C   0  0  0  0  0  0  0  0  0  0  0  0
    2.5916  -21.9010    0.0000 C   0  0  0  0  0  0  0  0  0  0  0  0
    2.3682  -21.0969    0.0000 C   0  0  0  0  0  0  0  0  0  0  0  0
    1.5620  -20.8889    0.0000 C   0  0  0  0  0  0  0  0  0  0  0  0
    0.9849  -21.4821    0.0000 C   0  0  0  0  0  0  0  0  0  0  0  0
    2.7681  -24.1149    0.0000 C   0  0  1  0  0  0  0  0  0  0  0  0
    2.0547  -22.8697    0.0000 C   0  0  0  0  0  0  0  0  0  0  0  0
    2.7645  -24.9444    0.0000 C   0  0  0  0  0  0  0  0  0  0  0  0
    3.4839  -23.7054    0.0000 C   0  0  0  0  0  0  0  0  0  0  0  0
    4.2009  -24.1164    0.0000 O   0  0  0  0  0  0  0  0  0  0  0  0
    3.4756  -25.3563    0.0000 C   0  0  0  0  0  0  0  0  0  0  0  0
    3.4695  -26.1743    0.0000 C   0  0  0  0  0  0  0  0  0  0  0  0
    4.1791  -26.5860    0.0000 C   0  0  0  0  0  0  0  0  0  0  0  0
    4.8934  -26.1768    0.0000 C   0  0  0  0  0  0  0  0  0  0  0  0
    4.8905  -25.3534    0.0000 C   0  0  0  0  0  0  0  0  0  0  0  0
    4.1799  -24.9433    0.0000 C   0  0  0  0  0  0  0  0  0  0  0  0
   -3.6896  -25.3452    0.0000 N   0  0  0  0  0  0  0  0  0  0  0  0
    3.4875  -22.8759    0.0000 N   0  0  0  0  0  0  0  0  0  0  0  0
  1  3  1  0  0  0  0
  3  2  2  0  0  0  0
  5  6  2  0  0  0  0
  5  7  1  0  0  0  0
  4  8  1  0  0  0  0
  4  9  1  0  0  0  0
  8 10  1  6  0  0  0
  8 11  1  0  0  0  0
 11 12  2  0  0  0  0
 11 13  1  0  0  0  0
 10 14  1  0  0  0  0
 14 15  2  0  0  0  0
 15 16  1  0  0  0  0
 16 17  2  0  0  0  0
 17 18  1  0  0  0  0
 18 19  2  0  0  0  0
 19 14  1  0  0  0  0
 13 20  1  0  0  0  0
 13 21  1  0  0  0  0
 20 22  1  0  0  0  0
 22 23  1  0  0  0  0
 22 24  2  0  0  0  0
 20 25  1  1  0  0  0
 25 26  1  0  0  0  0
 26 27  2  0  0  0  0
 27 28  1  0  0  0  0
 28 29  2  0  0  0  0
 29 30  1  0  0  0  0
 30 31  2  0  0  0  0
 31 26  1  0  0  0  0
 23 32  1  0  0  0  0
 23 33  1  0  0  0  0
 32 34  1  6  0  0  0
 32 35  1  0  0  0  0
 35 36  2  0  0  0  0
 34 37  1  0  0  0  0
 37 38  2  0  0  0  0
 38 39  1  0  0  0  0
 39 40  2  0  0  0  0
 40 41  1  0  0  0  0
 41 42  2  0  0  0  0
 42 37  1  0  0  0  0
  3  4  1  0  0  0  0
 43  1  1  0  0  0  0
 43  5  1  0  0  0  0
 35 44  1  0  0  0  0
M  END
>  <Mol Weight>
599.7198

>  <Formula>
C34H41N5O5

>  <chembl_id>
CHEMBL505930

$$$$

  Mrv0541 06201412482D          

 39 43  0  0  1  0            999 V2000
    9.4544  -11.9726    0.0000 C   0  0  0  0  0  0  0  0  0  0  0  0
    9.4544  -12.7982    0.0000 N   0  0  0  0  0  0  0  0  0  0  0  0
   10.1675  -13.2047    0.0000 C   0  0  0  0  0  0  0  0  0  0  0  0
   10.8806  -12.7982    0.0000 C   0  0  2  0  0  0  0  0  0  0  0  0
   10.8806  -11.9726    0.0000 C   0  0  1  0  0  0  0  0  0  0  0  0
   10.1675  -11.5537    0.0000 C   0  0  0  0  0  0  0  0  0  0  0  0
   11.5955  -13.2099    0.0000 N   0  0  0  0  0  0  0  0  0  0  0  0
   11.5943  -14.0355    0.0000 C   0  0  0  0  0  0  0  0  0  0  0  0
   10.8782  -14.4493    0.0000 O   0  0  0  0  0  0  0  0  0  0  0  0
   12.3093  -14.4514    0.0000 N   0  0  0  0  0  0  0  0  0  0  0  0
   12.3081  -15.2769    0.0000 C   0  0  0  0  0  0  0  0  0  0  0  0
   11.5973  -11.5598    0.0000 C   0  0  0  0  0  0  0  0  0  0  0  0
   12.3116  -11.9768    0.0000 N   0  0  0  0  0  0  0  0  0  0  0  0
   12.3086  -12.8079    0.0000 C   0  0  0  0  0  0  0  0  0  0  0  0
   13.0188  -13.2205    0.0000 C   0  0  0  0  0  0  0  0  0  0  0  0
   13.7337  -12.8154    0.0000 C   0  0  0  0  0  0  0  0  0  0  0  0
   13.7381  -11.9889    0.0000 C   0  0  2  0  0  0  0  0  0  0  0  0
   13.0275  -11.5675    0.0000 C   0  0  0  0  0  0  0  0  0  0  0  0
   14.4562  -11.5786    0.0000 C   0  0  0  0  0  0  0  0  0  0  0  0
   15.1690  -11.9979    0.0000 C   0  0  0  0  0  0  0  0  0  0  0  0
   15.1590  -12.8241    0.0000 C   0  0  0  0  0  0  0  0  0  0  0  0
   15.8711  -13.2392    0.0000 C   0  0  0  0  0  0  0  0  0  0  0  0
   16.5901  -12.8330    0.0000 C   0  0  0  0  0  0  0  0  0  0  0  0
   16.5927  -12.0032    0.0000 C   0  0  0  0  0  0  0  0  0  0  0  0
   15.8800  -11.5876    0.0000 C   0  0  0  0  0  0  0  0  0  0  0  0
   17.3036  -13.2473    0.0000 F   0  0  0  0  0  0  0  0  0  0  0  0
   11.6391  -15.7581    0.0000 S   0  0  0  0  0  0  0  0  0  0  0  0
   11.8932  -16.5445    0.0000 C   0  0  0  0  0  0  0  0  0  0  0  0
   12.7200  -16.5444    0.0000 C   0  0  0  0  0  0  0  0  0  0  0  0
   12.9739  -15.7579    0.0000 N   0  0  0  0  0  0  0  0  0  0  0  0
   11.4689  -17.2476    0.0000 C   0  0  0  0  0  0  0  0  0  0  0  0
   10.6477  -17.2318    0.0000 O   0  0  0  0  0  0  0  0  0  0  0  0
   11.8660  -17.9666    0.0000 C   0  0  0  0  0  0  0  0  0  0  0  0
   13.2034  -17.2084    0.0000 C   0  0  0  0  0  0  0  0  0  0  0  0
    8.7416  -13.2061    0.0000 C   0  0  0  0  0  0  0  0  0  0  0  0
    8.7384  -14.0275    0.0000 O   0  0  0  0  0  0  0  0  0  0  0  0
    8.0318  -12.7927    0.0000 C   0  0  0  0  0  0  0  0  0  0  0  0
    7.2107  -12.7882    0.0000 C   0  0  0  0  0  0  0  0  0  0  0  0
    7.6241  -12.0784    0.0000 C   0  0  0  0  0  0  0  0  0  0  0  0
 17 19  1  6  0  0  0
  2  3  1  0  0  0  0
 19 20  1  0  0  0  0
  8 10  1  0  0  0  0
 20 21  2  0  0  0  0
  3  4  1  0  0  0  0
 21 22  1  0  0  0  0
 10 11  1  0  0  0  0
 22 23  2  0  0  0  0
  4  5  1  0  0  0  0
 23 24  1  0  0  0  0
  5 12  1  1  0  0  0
 24 25  2  0  0  0  0
 25 20  1  0  0  0  0
  5  6  1  0  0  0  0
 23 26  1  0  0  0  0
 27 28  1  0  0  0  0
 12 13  1  0  0  0  0
 13 14  1  0  0  0  0
  4  7  1  6  0  0  0
 11 27  1  0  0  0  0
 28 29  2  0  0  0  0
 29 30  1  0  0  0  0
 30 11  2  0  0  0  0
  1  2  1  0  0  0  0
 28 31  1  0  0  0  0
  7  8  1  0  0  0  0
 31 32  2  0  0  0  0
  1  6  1  0  0  0  0
 31 33  1  0  0  0  0
 13 18  1  0  0  0  0
 29 34  1  0  0  0  0
 14 15  1  0  0  0  0
 15 16  1  0  0  0  0
 35 36  2  0  0  0  0
 16 17  1  0  0  0  0
 35 37  1  0  0  0  0
 38 37  1  0  0  0  0
 39 38  1  0  0  0  0
 37 39  1  0  0  0  0
 17 18  1  0  0  0  0
  8  9  2  0  0  0  0
 35  2  1  0  0  0  0
M  END
>  <Mol Weight>
555.707

>  <Formula>
C29H38FN5O3S

>  <chembl_id>
CHEMBL402708

$$$$

  Mrv0541 06201412482D          

 48 53  0  0  0  0            999 V2000
   -1.5782   -1.6456    0.0000 C   0  0  0  0  0  0  0  0  0  0  0  0
   -1.5806   -0.8220    0.0000 O   0  0  0  0  0  0  0  0  0  0  0  0
   -2.2918   -2.0596    0.0000 C   0  0  0  0  0  0  0  0  0  0  0  0
   -3.0035   -1.6497    0.0000 C   0  0  0  0  0  0  0  0  0  0  0  0
   -3.7171   -2.0637    0.0000 C   0  0  0  0  0  0  0  0  0  0  0  0
   -3.7147   -2.8873    0.0000 C   0  0  0  0  0  0  0  0  0  0  0  0
   -3.0029   -3.2971    0.0000 C   0  0  0  0  0  0  0  0  0  0  0  0
   -2.2894   -2.8832    0.0000 C   0  0  0  0  0  0  0  0  0  0  0  0
   -3.0059   -0.8260    0.0000 O   0  0  0  0  0  0  0  0  0  0  0  0
   -0.8624   -2.0554    0.0000 O   0  0  0  0  0  0  0  0  0  0  0  0
    4.9303    0.8153    0.0000 C   0  0  0  0  0  0  0  0  0  0  0  0
    5.7036    1.0926    0.0000 C   0  0  2  0  0  0  0  0  0  0  0  0
    5.6815    1.9141    0.0000 O   0  0  0  0  0  0  0  0  0  0  0  0
    4.8885    2.1501    0.0000 C   0  0  0  0  0  0  0  0  0  0  0  0
    4.4257    1.4671    0.0000 C   0  0  1  0  0  0  0  0  0  0  0  0
    4.6098    2.9242    0.0000 O   0  0  0  0  0  0  0  0  0  0  0  0
   -0.1532   -0.8299    0.0000 C   0  0  0  0  0  0  0  0  0  0  0  0
   -0.1508   -1.6523    0.0000 C   0  0  1  0  0  0  0  0  0  0  0  0
    0.5605   -2.0624    0.0000 C   0  0  0  0  0  0  0  0  0  0  0  0
    0.5599   -0.4113    0.0000 C   0  0  0  0  0  0  0  0  0  0  0  0
    1.2734   -0.8299    0.0000 C   0  0  1  0  0  0  0  0  0  0  0  0
    1.2782   -1.6523    0.0000 C   0  0  1  0  0  0  0  0  0  0  0  0
    1.9872   -2.0605    0.0000 C   0  0  0  0  0  0  0  0  0  0  0  0
    2.7041   -1.6503    0.0000 C   0  0  0  0  0  0  0  0  0  0  0  0
    1.9839   -0.4095    0.0000 C   0  0  2  0  0  0  0  0  0  0  0  0
    2.6988   -0.8221    0.0000 C   0  0  2  0  0  0  0  0  0  0  0  0
    2.6912    0.8246    0.0000 C   0  0  0  0  0  0  0  0  0  0  0  0
    1.9772    0.4121    0.0000 C   0  0  0  0  0  0  0  0  0  0  0  0
    3.4061    0.4140    0.0000 C   0  0  1  0  0  0  0  0  0  0  0  0
    3.4077   -0.4113    0.0000 C   0  0  1  0  0  0  0  0  0  0  0  0
    4.1967   -0.6650    0.0000 C   0  0  0  0  0  0  0  0  0  0  0  0
    4.6805    0.0081    0.0000 C   0  0  0  0  0  0  0  0  0  0  0  0
    4.1917    0.6701    0.0000 C   0  0  2  0  0  0  0  0  0  0  0  0
    1.2646   -0.0013    0.0000 C   0  0  0  0  0  0  0  0  0  0  0  0
    2.6890    0.0083    0.0000 C   0  0  0  0  0  0  0  0  0  0  0  0
    1.9793   -1.2337    0.0000 H   0  0  0  0  0  0  0  0  0  0  0  0
    3.4039   -1.2350    0.0000 H   0  0  0  0  0  0  0  0  0  0  0  0
    3.1863    1.2142    0.0000 H   0  0  0  0  0  0  0  0  0  0  0  0
    6.3867    0.6268    0.0000 C   0  0  0  0  0  0  0  0  0  0  0  0
    7.1318    0.9841    0.0000 C   0  0  0  0  0  0  0  0  0  0  0  0
    7.8151    0.5182    0.0000 C   0  0  0  0  0  0  0  0  0  0  0  0
    7.1980    1.8074    0.0000 C   0  0  0  0  0  0  0  0  0  0  0  0
    1.1429   -2.6434    0.0000 C   0  0  0  0  0  0  0  0  0  0  0  0
   -0.0281   -2.6468    0.0000 C   0  0  0  0  0  0  0  0  0  0  0  0
    1.4907   -2.4460    0.0000 H   0  0  0  0  0  0  0  0  0  0  0  0
    4.9880    0.4596    0.0000 H   0  0  0  0  0  0  0  0  0  0  0  0
   -3.7218   -0.4164    0.0000 C   0  0  0  0  0  0  0  0  0  0  0  0
    3.6004    1.4386    0.0000 O   0  0  0  0  0  0  0  0  0  0  0  0
  1  2  2  0  0  0  0
  1  3  1  0  0  0  0
  3  4  2  0  0  0  0
  4  5  1  0  0  0  0
  5  6  2  0  0  0  0
  6  7  1  0  0  0  0
  7  8  2  0  0  0  0
  8  3  1  0  0  0  0
  4  9  1  0  0  0  0
  1 10  1  0  0  0  0
 11 12  1  0  0  0  0
 12 13  1  0  0  0  0
 13 14  1  0  0  0  0
 14 15  1  0  0  0  0
 15 11  1  0  0  0  0
 14 16  2  0  0  0  0
 17 18  1  0  0  0  0
 17 20  1  0  0  0  0
 18 19  1  0  0  0  0
 19 22  1  0  0  0  0
 21 20  1  0  0  0  0
 21 22  1  0  0  0  0
 21 25  1  0  0  0  0
 22 23  1  0  0  0  0
 23 24  1  0  0  0  0
 24 26  1  0  0  0  0
 25 26  1  0  0  0  0
 25 28  1  0  0  0  0
 26 30  1  0  0  0  0
 29 27  1  0  0  0  0
 27 28  1  0  0  0  0
 29 30  1  0  0  0  0
 30 31  1  0  0  0  0
 31 32  1  0  0  0  0
 32 33  1  0  0  0  0
 33 29  1  0  0  0  0
 21 34  1  1  0  0  0
 26 35  1  1  0  0  0
 25 36  1  6  0  0  0
 30 37  1  6  0  0  0
 33 15  1  0  0  0  0
 29 38  1  1  0  0  0
 12 39  1  6  0  0  0
 39 40  2  0  0  0  0
 40 41  1  0  0  0  0
 40 42  1  0  0  0  0
 19 43  1  0  0  0  0
 19 44  1  0  0  0  0
 22 45  1  6  0  0  0
 33 46  1  6  0  0  0
 18 10  1  1  0  0  0
  9 47  1  0  0  0  0
 15 48  1  1  0  0  0
M  END
>  <Mol Weight>
592.8052

>  <Formula>
C37H52O6

>  <chembl_id>
CHEMBL1163233

$$$$

  Mrv0541 06201412482D          

 41 45  0  0  0  0            999 V2000
    7.3466   -2.0980    0.0000 C   0  0  0  0  0  0  0  0  0  0  0  0
    8.0614   -2.5107    0.0000 C   0  0  0  0  0  0  0  0  0  0  0  0
    8.7778   -2.0975    0.0000 C   0  0  0  0  0  0  0  0  0  0  0  0
    8.7749   -1.2671    0.0000 C   0  0  0  0  0  0  0  0  0  0  0  0
    7.3478   -1.2707    0.0000 C   0  0  0  0  0  0  0  0  0  0  0  0
    8.0618   -0.8571    0.0000 C   0  0  0  0  0  0  0  0  0  0  0  0
    7.8891   -0.0503    0.0000 N   0  0  0  0  0  0  0  0  0  0  0  0
    7.0684    0.0348    0.0000 C   0  0  0  0  0  0  0  0  0  0  0  0
    6.7340   -0.7194    0.0000 S   0  0  0  0  0  0  0  0  0  0  0  0
    6.6549    0.7485    0.0000 N   0  0  0  0  0  0  0  0  0  0  0  0
    7.0663    1.4635    0.0000 C   0  0  0  0  0  0  0  0  0  0  0  0
    6.6528    2.1774    0.0000 C   0  0  0  0  0  0  0  0  0  0  0  0
    7.8912    1.4647    0.0000 O   0  0  0  0  0  0  0  0  0  0  0  0
    9.4882   -0.8526    0.0000 O   0  0  0  0  0  0  0  0  0  0  0  0
   10.2036   -1.2632    0.0000 C   0  0  0  0  0  0  0  0  0  0  0  0
   10.2025   -2.0884    0.0000 N   0  0  0  0  0  0  0  0  0  0  0  0
   10.9173   -2.4988    0.0000 C   0  0  0  0  0  0  0  0  0  0  0  0
   11.6315   -2.0844    0.0000 N   0  0  0  0  0  0  0  0  0  0  0  0
   11.6266   -1.2552    0.0000 C   0  0  0  0  0  0  0  0  0  0  0  0
   10.9114   -0.8485    0.0000 C   0  0  0  0  0  0  0  0  0  0  0  0
   12.3384   -0.8383    0.0000 C   0  0  0  0  0  0  0  0  0  0  0  0
   13.0530   -1.2508    0.0000 C   0  0  0  0  0  0  0  0  0  0  0  0
   13.7644   -0.8345    0.0000 C   0  0  0  0  0  0  0  0  0  0  0  0
   13.7597   -0.0087    0.0000 C   0  0  0  0  0  0  0  0  0  0  0  0
   13.0377    0.3991    0.0000 C   0  0  0  0  0  0  0  0  0  0  0  0
   12.3293   -0.0195    0.0000 C   0  0  0  0  0  0  0  0  0  0  0  0
   14.4710    0.4092    0.0000 C   0  0  0  0  0  0  0  0  0  0  0  0
   15.1817    0.8291    0.0000 F   0  0  0  0  0  0  0  0  0  0  0  0
   14.8896   -0.3017    0.0000 F   0  0  0  0  0  0  0  0  0  0  0  0
   14.0516    1.1195    0.0000 F   0  0  0  0  0  0  0  0  0  0  0  0
   13.0555   -2.0756    0.0000 N   0  0  0  0  0  0  0  0  0  0  0  0
   13.7712   -2.4859    0.0000 C   0  0  0  0  0  0  0  0  0  0  0  0
   13.7753   -3.3135    0.0000 C   0  0  1  0  0  0  0  0  0  0  0  0
   13.0604   -3.7254    0.0000 C   0  0  0  0  0  0  0  0  0  0  0  0
   13.2313   -4.5326    0.0000 C   0  0  0  0  0  0  0  0  0  0  0  0
   14.0518   -4.6195    0.0000 C   0  0  0  0  0  0  0  0  0  0  0  0
   14.3879   -3.8661    0.0000 N   0  0  0  0  0  0  0  0  0  0  0  0
   15.1949   -3.6951    0.0000 C   0  0  0  0  0  0  0  0  0  0  0  0
   15.7465   -4.3086    0.0000 C   0  0  0  0  0  0  0  0  0  0  0  0
   16.5535   -4.1377    0.0000 C   0  0  0  0  0  0  0  0  0  0  0  0
   15.4910   -5.0930    0.0000 C   0  0  0  0  0  0  0  0  0  0  0  0
 20 15  1  0  0  0  0
  4  6  2  0  0  0  0
 19 21  1  0  0  0  0
  8 10  1  0  0  0  0
 21 22  2  0  0  0  0
  5  6  1  0  0  0  0
 22 23  1  0  0  0  0
 10 11  1  0  0  0  0
 23 24  2  0  0  0  0
  1  2  1  0  0  0  0
 24 25  1  0  0  0  0
 11 12  1  0  0  0  0
 25 26  2  0  0  0  0
 26 21  1  0  0  0  0
  5  1  2  0  0  0  0
 24 27  1  0  0  0  0
 11 13  2  0  0  0  0
 27 28  1  0  0  0  0
  2  3  2  0  0  0  0
 27 29  1  0  0  0  0
  4 14  1  0  0  0  0
 27 30  1  0  0  0  0
 22 31  1  0  0  0  0
 14 15  1  0  0  0  0
 31 32  1  0  0  0  0
 33 32  1  6  0  0  0
 33 34  1  0  0  0  0
  3  4  1  0  0  0  0
 15 16  2  0  0  0  0
  6  7  1  0  0  0  0
 16 17  1  0  0  0  0
  7  8  2  0  0  0  0
 34 35  1  0  0  0  0
 35 36  1  0  0  0  0
 36 37  1  0  0  0  0
 37 33  1  0  0  0  0
 17 18  2  0  0  0  0
  8  9  1  0  0  0  0
 37 38  1  0  0  0  0
 18 19  1  0  0  0  0
 38 39  1  0  0  0  0
  9  5  1  0  0  0  0
 39 40  1  0  0  0  0
 19 20  2  0  0  0  0
 39 41  1  0  0  0  0
M  END
>  <Mol Weight>
584.656

>  <Formula>
C29H31F3N6O2S

>  <chembl_id>
CHEMBL499990

$$$$

  Mrv0541 06201412482D          

 45 50  0  0  0  0            999 V2000
    4.0080   -7.4673    0.0000 O   0  0  0  0  0  0  0  0  0  0  0  0
    4.6893   -7.0021    0.0000 C   0  0  2  0  0  0  0  0  0  0  0  0
    4.4592   -6.2097    0.0000 C   0  0  0  0  0  0  0  0  0  0  0  0
    3.6320   -6.1852    0.0000 C   0  0  0  0  0  0  0  0  0  0  0  0
    3.3573   -6.9622    0.0000 C   0  0  1  0  0  0  0  0  0  0  0  0
    5.4000   -7.4125    0.0000 C   0  0  1  0  0  0  0  0  0  0  0  0
    5.3998   -8.2375    0.0000 C   0  0  0  0  0  0  0  0  0  0  0  0
    6.1145   -7.0001    0.0000 C   0  0  0  0  0  0  0  0  0  0  0  0
    6.1147   -6.1751    0.0000 O   0  0  0  0  0  0  0  0  0  0  0  0
    2.6375   -7.3667    0.0000 C   0  0  0  0  0  0  0  0  0  0  0  0
    1.9278   -6.9459    0.0000 C   0  0  1  0  0  0  0  0  0  0  0  0
    1.2086   -7.3501    0.0000 C   0  0  0  0  0  0  0  0  0  0  0  0
    1.9374   -6.1209    0.0000 N   0  0  0  0  0  0  0  0  0  0  0  0
    2.6130   -5.6475    0.0000 N   0  0  0  0  0  0  0  0  0  0  0  0
    2.3672   -4.8599    0.0000 N   0  0  0  0  0  0  0  0  0  0  0  0
    1.5422   -4.8503    0.0000 C   0  0  0  0  0  0  0  0  0  0  0  0
    1.2783   -5.6319    0.0000 C   0  0  0  0  0  0  0  0  0  0  0  0
    5.4000   -6.5833    0.0000 H   0  0  0  0  0  0  0  0  0  0  0  0
    1.1250   -4.1333    0.0000 C   0  0  0  0  0  0  0  0  0  0  0  0
    0.7083   -3.4167    0.0000 C   0  0  0  0  0  0  0  0  0  0  0  0
    0.2936   -2.7034    0.0000 C   0  0  0  0  0  0  0  0  0  0  0  0
   -0.5330   -1.2812    0.0000 C   0  0  0  0  0  0  0  0  0  0  0  0
   -0.9432   -2.0020    0.0000 C   0  0  0  0  0  0  0  0  0  0  0  0
   -0.5268   -2.7119    0.0000 C   0  0  0  0  0  0  0  0  0  0  0  0
    0.2896   -1.2795    0.0000 C   0  0  0  0  0  0  0  0  0  0  0  0
    0.7048   -1.9907    0.0000 C   0  0  0  0  0  0  0  0  0  0  0  0
   -0.9485   -0.5685    0.0000 O   0  0  0  0  0  0  0  0  0  0  0  0
   -0.5389    0.1477    0.0000 C   0  0  0  0  0  0  0  0  0  0  0  0
    6.8246   -7.4125    0.0000 N   0  0  0  0  0  0  0  0  0  0  0  0
    6.8287   -8.2378    0.0000 C   0  0  0  0  0  0  0  0  0  0  0  0
    7.5415   -8.6446    0.0000 C   0  0  0  0  0  0  0  0  0  0  0  0
    8.2549   -8.2307    0.0000 N   0  0  0  0  0  0  0  0  0  0  0  0
    8.2508   -7.4054    0.0000 C   0  0  0  0  0  0  0  0  0  0  0  0
    7.5334   -6.9940    0.0000 C   0  0  0  0  0  0  0  0  0  0  0  0
    8.9708   -8.6407    0.0000 C   0  0  0  0  0  0  0  0  0  0  0  0
    8.9738   -9.4657    0.0000 C   0  0  0  0  0  0  0  0  0  0  0  0
    8.3127   -9.9538    0.0000 O   0  0  0  0  0  0  0  0  0  0  0  0
    8.5705  -10.7375    0.0000 C   0  0  0  0  0  0  0  0  0  0  0  0
    9.3955  -10.7346    0.0000 C   0  0  0  0  0  0  0  0  0  0  0  0
    9.6475   -9.9490    0.0000 C   0  0  0  0  0  0  0  0  0  0  0  0
    0.2849    0.1498    0.0000 C   0  0  0  0  0  0  0  0  0  0  0  0
    0.6943    0.8651    0.0000 C   0  0  0  0  0  0  0  0  0  0  0  0
    0.2788    1.5788    0.0000 C   0  0  0  0  0  0  0  0  0  0  0  0
   -0.5504    1.5728    0.0000 C   0  0  0  0  0  0  0  0  0  0  0  0
   -0.9562    0.8569    0.0000 C   0  0  0  0  0  0  0  0  0  0  0  0
 21 26  2  0  0  0  0
 25 22  2  0  0  0  0
  2  3  1  0  0  0  0
 22 23  1  0  0  0  0
  6  8  1  0  0  0  0
 23 24  2  0  0  0  0
 24 21  1  0  0  0  0
  3  4  1  0  0  0  0
 14 15  2  0  0  0  0
 25 26  1  0  0  0  0
 15 16  1  0  0  0  0
 22 27  1  0  0  0  0
 16 17  2  0  0  0  0
 27 28  1  0  0  0  0
 29 30  1  0  0  0  0
 17 13  1  0  0  0  0
  8 29  1  0  0  0  0
  2 18  1  1  0  0  0
  4  5  1  0  0  0  0
 16 19  1  0  0  0  0
  8  9  2  0  0  0  0
 29 34  1  0  0  0  0
 30 31  1  0  0  0  0
 31 32  1  0  0  0  0
 32 33  1  0  0  0  0
 33 34  1  0  0  0  0
 19 20  3  0  0  0  0
 32 35  1  0  0  0  0
  5  1  1  0  0  0  0
 35 36  1  0  0  0  0
 36 37  1  0  0  0  0
 20 21  1  0  0  0  0
  5 10  1  6  0  0  0
  2  1  1  0  0  0  0
 10 11  1  0  0  0  0
 37 38  1  0  0  0  0
 38 39  1  0  0  0  0
 39 40  1  0  0  0  0
 40 36  1  0  0  0  0
  2  6  1  0  0  0  0
 28 41  2  0  0  0  0
 11 12  1  0  0  0  0
 41 42  1  0  0  0  0
 11 13  1  1  0  0  0
 42 43  2  0  0  0  0
 13 14  1  0  0  0  0
 43 44  1  0  0  0  0
  6  7  1  6  0  0  0
 44 45  2  0  0  0  0
 45 28  1  0  0  0  0
M  END
>  <Mol Weight>
597.747

>  <Formula>
C35H43N5O4

>  <chembl_id>
CHEMBL500085

$$$$

  Mrv0541 06201412482D          

 42 44  0  0  0  0            999 V2000
   -3.8139   -4.9083    0.0000 C   0  0  0  0  0  0  0  0  0  0  0  0
   -3.8151   -5.7357    0.0000 C   0  0  0  0  0  0  0  0  0  0  0  0
   -2.3867   -4.9047    0.0000 C   0  0  0  0  0  0  0  0  0  0  0  0
   -3.1021   -4.4955    0.0000 C   0  0  0  0  0  0  0  0  0  0  0  0
   -2.3838   -5.7352    0.0000 C   0  0  0  0  0  0  0  0  0  0  0  0
   -3.0974   -6.1450    0.0000 C   0  0  0  0  0  0  0  0  0  0  0  0
   -1.7737   -6.2872    0.0000 N   0  0  0  0  0  0  0  0  0  0  0  0
   -2.9281   -6.9531    0.0000 C   0  0  0  0  0  0  0  0  0  0  0  0
   -2.1100   -7.0382    0.0000 C   0  0  0  0  0  0  0  0  0  0  0  0
   -1.6609   -7.7341    0.0000 C   0  0  0  0  0  0  0  0  0  0  0  0
   -3.5073   -7.5452    0.0000 C   0  0  0  0  0  0  0  0  0  0  0  0
   -1.9211   -8.5171    0.0000 N   0  0  0  0  0  0  0  0  0  0  0  0
   -3.4047   -8.3665    0.0000 C   0  0  2  0  0  0  0  0  0  0  0  0
   -2.6977   -8.7963    0.0000 C   0  0  0  0  0  0  0  0  0  0  0  0
   -2.7805   -9.6171    0.0000 O   0  0  0  0  0  0  0  0  0  0  0  0
   -4.0972   -8.8148    0.0000 N   0  0  0  0  0  0  0  0  0  0  0  0
   -4.8318   -8.4391    0.0000 C   0  0  0  0  0  0  0  0  0  0  0  0
   -5.5243   -8.8874    0.0000 C   0  0  0  0  0  0  0  0  0  0  0  0
   -4.8737   -7.6152    0.0000 O   0  0  0  0  0  0  0  0  0  0  0  0
   -1.3307   -9.0933    0.0000 C   0  0  2  0  0  0  0  0  0  0  0  0
   -1.5346   -9.8928    0.0000 C   0  0  0  0  0  0  0  0  0  0  0  0
   -0.9442  -10.4690    0.0000 N   0  0  0  0  0  0  0  0  0  0  0  0
   -2.3288  -10.1159    0.0000 O   0  0  0  0  0  0  0  0  0  0  0  0
   -1.1480  -11.2684    0.0000 C   0  0  0  0  0  0  0  0  0  0  0  0
   -0.5576  -11.8447    0.0000 C   0  0  0  0  0  0  0  0  0  0  0  0
   -0.7644  -12.6414    0.0000 C   0  0  0  0  0  0  0  0  0  0  0  0
   -0.1748  -13.2173    0.0000 C   0  0  0  0  0  0  0  0  0  0  0  0
    0.6204  -12.9943    0.0000 C   0  0  0  0  0  0  0  0  0  0  0  0
    0.8228  -12.1901    0.0000 C   0  0  0  0  0  0  0  0  0  0  0  0
    0.2317  -11.6176    0.0000 C   0  0  0  0  0  0  0  0  0  0  0  0
   -0.5365   -8.8701    0.0000 C   0  0  0  0  0  0  0  0  0  0  0  0
    0.0539   -9.4464    0.0000 C   0  0  0  0  0  0  0  0  0  0  0  0
    0.8481   -9.2232    0.0000 C   0  0  0  0  0  0  0  0  0  0  0  0
    1.4385   -9.7994    0.0000 C   0  0  0  0  0  0  0  0  0  0  0  0
    2.2328   -9.5763    0.0000 N   0  0  0  0  0  0  0  0  0  0  0  0
    0.8208   -7.7208    0.0000 C   0  0  0  0  0  0  0  0  0  0  0  0
    1.6458   -7.7208    0.0000 C   0  0  0  0  0  0  0  0  0  0  0  0
   -0.0042   -7.7208    0.0000 F   0  0  0  0  0  0  0  0  0  0  0  0
    0.8208   -6.8958    0.0000 F   0  0  0  0  0  0  0  0  0  0  0  0
    0.8208   -8.5458    0.0000 F   0  0  0  0  0  0  0  0  0  0  0  0
    2.0596   -8.4331    0.0000 O   0  0  0  0  0  0  0  0  0  0  0  0
    2.0596   -7.0041    0.0000 O   0  0  0  0  0  0  0  0  0  0  0  0
 12 20  1  0  0  0  0
  8  9  2  0  0  0  0
 20 21  1  0  0  0  0
  3  4  2  0  0  0  0
 21 22  1  0  0  0  0
  9 10  1  0  0  0  0
 21 23  2  0  0  0  0
  4  1  1  0  0  0  0
 22 24  1  0  0  0  0
  8 11  1  0  0  0  0
 24 25  1  0  0  0  0
  5  6  2  0  0  0  0
 25 26  2  0  0  0  0
 10 12  1  0  0  0  0
 26 27  1  0  0  0  0
  1  2  2  0  0  0  0
 27 28  2  0  0  0  0
 13 11  1  0  0  0  0
 28 29  1  0  0  0  0
  2  6  1  0  0  0  0
 29 30  2  0  0  0  0
 30 25  1  0  0  0  0
 12 14  1  0  0  0  0
 20 31  1  1  0  0  0
 13 14  1  0  0  0  0
 31 32  1  0  0  0  0
 32 33  1  0  0  0  0
 14 15  2  0  0  0  0
 33 34  1  0  0  0  0
  6  8  1  0  0  0  0
 34 35  1  0  0  0  0
 13 16  1  6  0  0  0
  9  7  1  0  0  0  0
 36 37  1  0  0  0  0
 16 17  1  0  0  0  0
 36 38  1  0  0  0  0
  7  5  1  0  0  0  0
 36 39  1  0  0  0  0
 17 18  1  0  0  0  0
 36 40  1  0  0  0  0
  5  3  1  0  0  0  0
 17 19  2  0  0  0  0
 37 41  1  0  0  0  0
 37 42  2  0  0  0  0
M  END
>  <Mol Weight>
589.606

>  <Formula>
C29H34F3N5O5

>  <chembl_id>
CHEMBL501699

$$$$

  Mrv0541 06201412482D          

 42 47  0  0  0  0            999 V2000
   -4.7042   -3.5384    0.0000 C   0  0  0  0  0  0  0  0  0  0  0  0
   -4.7056   -4.3661    0.0000 C   0  0  0  0  0  0  0  0  0  0  0  0
   -3.9925   -4.7790    0.0000 C   0  0  0  0  0  0  0  0  0  0  0  0
   -3.9945   -3.1257    0.0000 C   0  0  0  0  0  0  0  0  0  0  0  0
   -3.2764   -3.5345    0.0000 C   0  0  0  0  0  0  0  0  0  0  0  0
   -3.2753   -4.3619    0.0000 C   0  0  0  0  0  0  0  0  0  0  0  0
   -2.5594   -4.7729    0.0000 N   0  0  0  0  0  0  0  0  0  0  0  0
   -1.8439   -4.3576    0.0000 C   0  0  0  0  0  0  0  0  0  0  0  0
   -1.8490   -3.5270    0.0000 C   0  0  0  0  0  0  0  0  0  0  0  0
   -2.5655   -3.1197    0.0000 C   0  0  0  0  0  0  0  0  0  0  0  0
   -5.4206   -4.7776    0.0000 Cl  0  0  0  0  0  0  0  0  0  0  0  0
   -2.5702   -2.2947    0.0000 N   0  0  0  0  0  0  0  0  0  0  0  0
   -1.8580   -1.8782    0.0000 C   0  0  0  0  0  0  0  0  0  0  0  0
   -1.1412   -2.2867    0.0000 C   0  0  0  0  0  0  0  0  0  0  0  0
   -0.4290   -1.8701    0.0000 N   0  0  0  0  0  0  0  0  0  0  0  0
    0.2906   -2.2846    0.0000 C   0  0  0  0  0  0  0  0  0  0  0  0
    1.0007   -1.8716    0.0000 C   0  0  0  0  0  0  0  0  0  0  0  0
    1.0003   -1.0461    0.0000 N   0  0  0  0  0  0  0  0  0  0  0  0
    0.2836   -0.6355    0.0000 C   0  0  0  0  0  0  0  0  0  0  0  0
   -0.4326   -1.0502    0.0000 C   0  0  0  0  0  0  0  0  0  0  0  0
    1.7099   -0.6314    0.0000 C   0  0  0  0  0  0  0  0  0  0  0  0
    2.4255   -1.0443    0.0000 N   0  0  0  0  0  0  0  0  0  0  0  0
    3.1388   -0.6312    0.0000 C   0  0  0  0  0  0  0  0  0  0  0  0
    3.1377    0.1947    0.0000 N   0  0  0  0  0  0  0  0  0  0  0  0
    2.4174    0.6058    0.0000 C   0  0  0  0  0  0  0  0  0  0  0  0
    1.7071    0.1902    0.0000 N   0  0  0  0  0  0  0  0  0  0  0  0
    2.4128    1.4308    0.0000 N   0  0  0  0  0  0  0  0  0  0  0  0
    3.1251    1.8472    0.0000 C   0  0  0  0  0  0  0  0  0  0  0  0
    3.8454    1.4341    0.0000 C   0  0  0  0  0  0  0  0  0  0  0  0
    4.5572    1.8498    0.0000 C   0  0  0  0  0  0  0  0  0  0  0  0
    4.5532    2.6758    0.0000 C   0  0  0  0  0  0  0  0  0  0  0  0
    3.8315    3.0842    0.0000 C   0  0  0  0  0  0  0  0  0  0  0  0
    3.1226    2.6662    0.0000 C   0  0  0  0  0  0  0  0  0  0  0  0
    3.8502   -1.0450    0.0000 N   0  0  0  0  0  0  0  0  0  0  0  0
    3.8475   -1.8701    0.0000 C   0  0  0  0  0  0  0  0  0  0  0  0
    3.1328   -2.2751    0.0000 C   0  0  0  0  0  0  0  0  0  0  0  0
    3.1282   -3.0965    0.0000 C   0  0  0  0  0  0  0  0  0  0  0  0
    3.8395   -3.5152    0.0000 C   0  0  0  0  0  0  0  0  0  0  0  0
    4.5572   -3.1063    0.0000 C   0  0  0  0  0  0  0  0  0  0  0  0
    4.5635   -2.2786    0.0000 C   0  0  0  0  0  0  0  0  0  0  0  0
    2.4056    3.0742    0.0000 C   0  0  0  0  0  0  0  0  0  0  0  0
    5.2786   -1.8671    0.0000 C   0  0  0  0  0  0  0  0  0  0  0  0
 19 20  1  0  0  0  0
  9 10  2  0  0  0  0
 10  5  1  0  0  0  0
 21 22  2  0  0  0  0
 22 23  1  0  0  0  0
  2 11  1  0  0  0  0
 23 24  2  0  0  0  0
  2  3  1  0  0  0  0
 24 25  1  0  0  0  0
 10 12  1  0  0  0  0
 25 26  2  0  0  0  0
 26 21  1  0  0  0  0
 18 21  1  0  0  0  0
  5  6  1  0  0  0  0
 25 27  1  0  0  0  0
 12 13  1  0  0  0  0
 27 28  1  0  0  0  0
  3  6  2  0  0  0  0
 28 29  2  0  0  0  0
 13 14  1  0  0  0  0
 29 30  1  0  0  0  0
  6  7  1  0  0  0  0
 30 31  2  0  0  0  0
 14 15  1  0  0  0  0
 31 32  1  0  0  0  0
 15 16  1  0  0  0  0
 32 33  2  0  0  0  0
 33 28  1  0  0  0  0
  1  2  2  0  0  0  0
 23 34  1  0  0  0  0
  7  8  2  0  0  0  0
 34 35  1  0  0  0  0
 35 36  2  0  0  0  0
  5  4  2  0  0  0  0
  8  9  1  0  0  0  0
  4  1  1  0  0  0  0
 15 20  1  0  0  0  0
 16 17  1  0  0  0  0
 35 40  1  0  0  0  0
 36 37  1  0  0  0  0
 37 38  2  0  0  0  0
 38 39  1  0  0  0  0
 39 40  2  0  0  0  0
 17 18  1  0  0  0  0
 33 41  1  0  0  0  0
 18 19  1  0  0  0  0
 40 42  1  0  0  0  0
M  END
>  <Mol Weight>
580.126

>  <Formula>
C32H34ClN9

>  <chembl_id>
CHEMBL501758

$$$$

  Mrv0541 06201412482D          

 44 48  0  0  0  0            999 V2000
   -3.4158    0.0643    0.0000 C   0  0  0  0  0  0  0  0  0  0  0  0
   -2.7014    0.4768    0.0000 C   0  0  0  0  0  0  0  0  0  0  0  0
   -1.9869    0.0643    0.0000 C   0  0  0  0  0  0  0  0  0  0  0  0
   -1.9869   -0.7607    0.0000 C   0  0  0  0  0  0  0  0  0  0  0  0
   -2.7014   -1.1732    0.0000 C   0  0  0  0  0  0  0  0  0  0  0  0
   -3.4158   -0.7607    0.0000 C   0  0  0  0  0  0  0  0  0  0  0  0
   -1.2724    0.4768    0.0000 C   0  0  0  0  0  0  0  0  0  0  0  0
   -0.5579    0.0643    0.0000 N   0  0  0  0  0  0  0  0  0  0  0  0
   -1.2724    1.3018    0.0000 O   0  0  0  0  0  0  0  0  0  0  0  0
    0.1565    0.4768    0.0000 C   0  0  1  0  0  0  0  0  0  0  0  0
    0.1565    1.3018    0.0000 C   0  0  0  0  0  0  0  0  0  0  0  0
    0.8710    0.0643    0.0000 C   0  0  2  0  0  0  0  0  0  0  0  0
    0.8710   -0.7607    0.0000 O   0  0  0  0  0  0  0  0  0  0  0  0
    0.8710    1.7143    0.0000 C   0  0  0  0  0  0  0  0  0  0  0  0
    1.5855    0.4768    0.0000 C   0  0  0  0  0  0  0  0  0  0  0  0
    2.2999    0.0643    0.0000 N   0  0  0  0  0  0  0  0  0  0  0  0
    3.0144    0.4768    0.0000 C   0  0  0  0  0  0  0  0  0  0  0  0
    0.8710    2.5393    0.0000 C   0  0  0  0  0  0  0  0  0  0  0  0
    1.5855    2.9518    0.0000 C   0  0  0  0  0  0  0  0  0  0  0  0
    2.2999    2.5393    0.0000 C   0  0  0  0  0  0  0  0  0  0  0  0
    2.2999    1.7143    0.0000 C   0  0  0  0  0  0  0  0  0  0  0  0
    1.5855    1.3018    0.0000 C   0  0  0  0  0  0  0  0  0  0  0  0
   -4.1303    0.4768    0.0000 C   0  0  0  0  0  0  0  0  0  0  0  0
   -2.2889   -3.2677    0.0000 C   0  0  0  0  0  0  0  0  0  0  0  0
   -3.1139   -3.2677    0.0000 C   0  0  0  0  0  0  0  0  0  0  0  0
   -3.3688   -2.4831    0.0000 C   0  0  0  0  0  0  0  0  0  0  0  0
   -2.7014   -1.9982    0.0000 N   0  0  0  0  0  0  0  0  0  0  0  0
   -2.0339   -2.4831    0.0000 C   0  0  0  0  0  0  0  0  0  0  0  0
   -4.1534   -2.2282    0.0000 O   0  0  0  0  0  0  0  0  0  0  0  0
   -4.8448   -0.7607    0.0000 C   0  0  0  0  0  0  0  0  0  0  0  0
   -4.1303   -1.1732    0.0000 N   0  0  0  0  0  0  0  0  0  0  0  0
   -4.8448    1.7143    0.0000 C   0  0  0  0  0  0  0  0  0  0  0  0
   -4.1303    1.3018    0.0000 C   0  0  0  0  0  0  0  0  0  0  0  0
    5.1578    0.0643    0.0000 C   0  0  0  0  0  0  0  0  0  0  0  0
    5.1578   -0.7607    0.0000 C   0  0  0  0  0  0  0  0  0  0  0  0
    4.4434   -1.1732    0.0000 C   0  0  0  0  0  0  0  0  0  0  0  0
    3.7289   -0.7607    0.0000 C   0  0  0  0  0  0  0  0  0  0  0  0
    3.7289    0.0643    0.0000 C   0  0  0  0  0  0  0  0  0  0  0  0
    4.4434    0.4768    0.0000 C   0  0  0  0  0  0  0  0  0  0  0  0
    5.8723    0.4768    0.0000 C   0  0  0  0  0  0  0  0  0  0  0  0
    6.5868    0.8893    0.0000 F   0  0  0  0  0  0  0  0  0  0  0  0
    6.2848   -0.2376    0.0000 F   0  0  0  0  0  0  0  0  0  0  0  0
    5.4598    1.1913    0.0000 F   0  0  0  0  0  0  0  0  0  0  0  0
   -4.8448    0.0643    0.0000 C   0  0  0  0  0  0  0  0  0  0  0  0
  1  2  1  0  0  0  0
  1  6  2  0  0  0  0
  1 23  1  0  0  0  0
  2  3  2  0  0  0  0
  3  4  1  0  0  0  0
  3  7  1  0  0  0  0
  4  5  2  0  0  0  0
  5  6  1  0  0  0  0
  5 27  1  0  0  0  0
  6 31  1  0  0  0  0
  7  8  1  0  0  0  0
  7  9  2  0  0  0  0
 10  8  1  1  0  0  0
 10 11  1  0  0  0  0
 10 12  1  0  0  0  0
 11 14  1  0  0  0  0
 12 13  1  1  0  0  0
 12 15  1  0  0  0  0
 14 18  1  0  0  0  0
 14 22  2  0  0  0  0
 15 16  1  0  0  0  0
 17 16  1  0  0  0  0
 17 38  1  0  0  0  0
 18 19  2  0  0  0  0
 19 20  1  0  0  0  0
 20 21  2  0  0  0  0
 21 22  1  0  0  0  0
 33 23  1  0  0  0  0
 44 23  2  0  0  0  0
 24 25  1  0  0  0  0
 24 28  1  0  0  0  0
 25 26  1  0  0  0  0
 26 27  1  0  0  0  0
 26 29  2  0  0  0  0
 28 27  1  0  0  0  0
 30 31  2  0  0  0  0
 44 30  1  0  0  0  0
 32 33  1  0  0  0  0
 34 35  1  0  0  0  0
 34 39  2  0  0  0  0
 34 40  1  0  0  0  0
 35 36  2  0  0  0  0
 36 37  1  0  0  0  0
 37 38  2  0  0  0  0
 38 39  1  0  0  0  0
 40 41  1  0  0  0  0
 40 42  1  0  0  0  0
 40 43  1  0  0  0  0
M  END
>  <Mol Weight>
604.6619

>  <Formula>
C34H35F3N4O3

>  <chembl_id>
CHEMBL501958

$$$$

  Mrv0541 06201412482D          

 42 48  0  0  0  0            999 V2000
    0.9904  -20.6197    0.0000 C   0  0  0  0  0  0  0  0  0  0  0  0
   -0.0483  -18.7686    0.0000 C   0  0  1  0  0  0  0  0  0  0  0  0
   -0.9468  -17.7810    0.0000 N   0  0  0  0  0  0  0  0  0  0  0  0
   -0.8562  -18.6013    0.0000 C   0  0  0  0  0  0  0  0  0  0  0  0
   -0.1378  -19.5672    0.0000 C   0  0  2  0  0  0  0  0  0  0  0  0
    0.5928  -19.8917    0.0000 C   0  0  2  0  0  0  0  0  0  0  0  0
    0.7311  -18.6134    0.0000 N   0  0  0  0  0  0  0  0  0  0  0  0
    1.1303  -19.3055    0.0000 C   0  0  1  0  0  0  0  0  0  0  0  0
   -1.2089  -19.8625    0.0000 C   0  0  0  0  0  0  0  0  0  0  0  0
   -0.6199  -20.6469    0.0000 C   0  0  0  0  0  0  0  0  0  0  0  0
   -0.3218  -21.4357    0.0000 O   0  0  0  0  0  0  0  0  0  0  0  0
   -2.3116  -19.3315    0.0000 N   0  0  0  0  0  0  0  0  0  0  0  0
   -2.4409  -20.1438    0.0000 C   0  0  0  0  0  0  0  0  0  0  0  0
   -1.9820  -20.7916    0.0000 C   0  0  0  0  0  0  0  0  0  0  0  0
   -2.3547  -21.4975    0.0000 C   0  0  0  0  0  0  0  0  0  0  0  0
   -3.1518  -21.5293    0.0000 C   0  0  0  0  0  0  0  0  0  0  0  0
   -2.6951  -18.5987    0.0000 C   0  0  0  0  0  0  0  0  0  0  0  0
   -0.1946  -17.4416    0.0000 C   0  0  0  0  0  0  0  0  0  0  0  0
    0.3587  -18.0505    0.0000 C   0  0  0  0  0  0  0  0  0  0  0  0
    1.1606  -17.8753    0.0000 C   0  0  0  0  0  0  0  0  0  0  0  0
    1.4104  -17.0915    0.0000 C   0  0  0  0  0  0  0  0  0  0  0  0
    0.8520  -16.4830    0.0000 C   0  0  0  0  0  0  0  0  0  0  0  0
    0.0522  -16.6614    0.0000 C   0  0  0  0  0  0  0  0  0  0  0  0
   -1.4680  -19.1578    0.0000 O   0  0  0  0  0  0  0  0  0  0  0  0
    1.9196  -19.0589    0.0000 C   0  0  0  0  0  0  0  0  0  0  0  0
    2.5256  -19.6194    0.0000 C   0  0  0  0  0  0  0  0  0  0  0  0
    3.3143  -19.3733    0.0000 C   0  0  0  0  0  0  0  0  0  0  0  0
    3.4960  -18.5656    0.0000 C   0  0  0  0  0  0  0  0  0  0  0  0
    2.8827  -18.0045    0.0000 C   0  0  0  0  0  0  0  0  0  0  0  0
    2.0964  -18.2536    0.0000 C   0  0  0  0  0  0  0  0  0  0  0  0
    0.5560  -21.3235    0.0000 C   0  0  0  0  0  0  0  0  0  0  0  0
    0.9529  -22.0509    0.0000 C   0  0  0  0  0  0  0  0  0  0  0  0
    1.7831  -22.0711    0.0000 C   0  0  0  0  0  0  0  0  0  0  0  0
    2.2147  -21.3577    0.0000 C   0  0  0  0  0  0  0  0  0  0  0  0
    1.8153  -20.6330    0.0000 C   0  0  0  0  0  0  0  0  0  0  0  0
    2.1805  -22.7963    0.0000 C   0  0  0  0  0  0  0  0  0  0  0  0
   -3.5795  -20.8549    0.0000 C   0  0  0  0  0  0  0  0  0  0  0  0
   -4.3718  -20.8863    0.0000 C   0  0  0  0  0  0  0  0  0  0  0  0
   -4.7443  -21.5931    0.0000 C   0  0  0  0  0  0  0  0  0  0  0  0
   -4.3110  -22.2696    0.0000 C   0  0  0  0  0  0  0  0  0  0  0  0
   -3.5223  -22.2348    0.0000 C   0  0  0  0  0  0  0  0  0  0  0  0
   -5.5706  -21.6280    0.0000 C   0  0  0  0  0  0  0  0  0  0  0  0
 19 20  1  0  0  0  0
 20 21  2  0  0  0  0
  5  6  1  0  0  0  0
 21 22  1  0  0  0  0
  6  8  1  0  0  0  0
 22 23  2  0  0  0  0
 23 18  1  0  0  0  0
  7  2  1  0  0  0  0
  4 24  2  0  0  0  0
  2  5  1  0  0  0  0
  8 25  1  1  0  0  0
  7  8  1  0  0  0  0
 25 26  2  0  0  0  0
  5  9  1  6  0  0  0
 26 27  1  0  0  0  0
  5 10  1  0  0  0  0
 27 28  2  0  0  0  0
 10 11  2  0  0  0  0
 28 29  1  0  0  0  0
  9 12  1  0  0  0  0
 29 30  2  0  0  0  0
 30 25  1  0  0  0  0
 12 13  1  0  0  0  0
  1 31  2  0  0  0  0
 13 14  1  0  0  0  0
 31 32  1  0  0  0  0
 14 10  1  0  0  0  0
 32 33  2  0  0  0  0
 14 15  2  0  0  0  0
 33 34  1  0  0  0  0
 15 16  1  0  0  0  0
 34 35  2  0  0  0  0
 35  1  1  0  0  0  0
  6  1  1  6  0  0  0
 33 36  1  0  0  0  0
 18  3  1  0  0  0  0
 16 37  2  0  0  0  0
 12 17  1  0  0  0  0
 37 38  1  0  0  0  0
  3  4  1  0  0  0  0
 38 39  2  0  0  0  0
  2  4  1  6  0  0  0
 39 40  1  0  0  0  0
 18 19  2  0  0  0  0
 40 41  2  0  0  0  0
 41 16  1  0  0  0  0
  2 19  1  0  0  0  0
 39 42  1  0  0  0  0
M  END
>  <Mol Weight>
553.6927

>  <Formula>
C37H35N3O2

>  <chembl_id>
CHEMBL500246

$$$$

  Mrv0541 06201412482D          

 42 47  0  0  0  0            999 V2000
   -4.0396   -1.0175    0.0000 C   0  0  0  0  0  0  0  0  0  0  0  0
   -4.0408   -1.8451    0.0000 C   0  0  0  0  0  0  0  0  0  0  0  0
   -3.3279   -2.2580    0.0000 C   0  0  0  0  0  0  0  0  0  0  0  0
   -2.6117   -1.0135    0.0000 C   0  0  0  0  0  0  0  0  0  0  0  0
   -2.6079   -1.8472    0.0000 C   0  0  0  0  0  0  0  0  0  0  0  0
   -1.8882   -2.2585    0.0000 N   0  0  0  0  0  0  0  0  0  0  0  0
   -1.1675   -1.8408    0.0000 C   0  0  0  0  0  0  0  0  0  0  0  0
   -1.1711   -1.0071    0.0000 C   0  0  0  0  0  0  0  0  0  0  0  0
   -1.8956   -0.5912    0.0000 C   0  0  0  0  0  0  0  0  0  0  0  0
   -0.4580   -0.5921    0.0000 N   0  0  0  0  0  0  0  0  0  0  0  0
    0.2578   -1.0021    0.0000 S   0  0  0  0  0  0  0  0  0  0  0  0
    0.6691   -0.2870    0.0000 O   0  0  0  0  0  0  0  0  0  0  0  0
   -0.1482   -1.7203    0.0000 O   0  0  0  0  0  0  0  0  0  0  0  0
   -1.8857   -3.0835    0.0000 C   0  0  0  0  0  0  0  0  0  0  0  0
   -2.5988   -3.4982    0.0000 C   0  0  0  0  0  0  0  0  0  0  0  0
   -3.3581   -3.1640    0.0000 C   0  0  0  0  0  0  0  0  0  0  0  0
   -3.9083   -3.7788    0.0000 N   0  0  0  0  0  0  0  0  0  0  0  0
   -3.4936   -4.4920    0.0000 C   0  0  0  0  0  0  0  0  0  0  0  0
   -2.6871   -4.3179    0.0000 N   0  0  0  0  0  0  0  0  0  0  0  0
   -2.0739   -4.8698    0.0000 C   0  0  0  0  0  0  0  0  0  0  0  0
   -0.4632    0.2316    0.0000 C   0  0  0  0  0  0  0  0  0  0  0  0
   -4.7519   -0.6077    0.0000 C   0  0  0  0  0  0  0  0  0  0  0  0
   -5.4668   -0.1957    0.0000 N   0  0  0  0  0  0  0  0  0  0  0  0
    0.9671   -1.4117    0.0000 C   0  0  0  0  0  0  0  0  0  0  0  0
    0.9643   -2.2317    0.0000 N   0  0  0  0  0  0  0  0  0  0  0  0
    1.6727   -2.6413    0.0000 C   0  0  0  0  0  0  0  0  0  0  0  0
    2.3830   -2.2317    0.0000 C   0  0  0  0  0  0  0  0  0  0  0  0
    2.3804   -1.4085    0.0000 C   0  0  0  0  0  0  0  0  0  0  0  0
    1.6714   -1.0027    0.0000 C   0  0  0  0  0  0  0  0  0  0  0  0
   -3.3891   -0.6992    0.0000 C   0  0  0  0  0  0  0  0  0  0  0  0
    0.1146    0.8204    0.0000 C   0  0  0  0  0  0  0  0  0  0  0  0
    0.9390    0.8372    0.0000 C   0  0  0  0  0  0  0  0  0  0  0  0
    1.1797    1.6263    0.0000 O   0  0  0  0  0  0  0  0  0  0  0  0
    0.5036    2.0991    0.0000 N   0  0  0  0  0  0  0  0  0  0  0  0
   -0.1549    1.6021    0.0000 C   0  0  0  0  0  0  0  0  0  0  0  0
   -0.9423    1.8392    0.0000 C   0  0  0  0  0  0  0  0  0  0  0  0
   -1.1275    2.6443    0.0000 C   0  0  0  0  0  0  0  0  0  0  0  0
   -1.9158    2.8850    0.0000 C   0  0  0  0  0  0  0  0  0  0  0  0
   -2.5197    2.3216    0.0000 C   0  0  0  0  0  0  0  0  0  0  0  0
   -2.3300    1.5143    0.0000 C   0  0  0  0  0  0  0  0  0  0  0  0
   -1.5419    1.2773    0.0000 C   0  0  0  0  0  0  0  0  0  0  0  0
    1.4373    0.1796    0.0000 C   0  0  0  0  0  0  0  0  0  0  0  0
  7  8  1  0  0  0  0
 19 20  1  0  0  0  0
  8  9  1  0  0  0  0
 10 21  1  0  0  0  0
  4  5  1  0  0  0  0
  8 10  1  0  0  0  0
 22 23  3  0  0  0  0
  1 22  1  0  0  0  0
  1  2  2  0  0  0  0
 11 24  1  0  0  0  0
 10 11  1  0  0  0  0
 24 25  2  0  0  0  0
 25 26  1  0  0  0  0
 11 12  2  0  0  0  0
 26 27  2  0  0  0  0
  2  3  1  0  0  0  0
 27 28  1  0  0  0  0
 11 13  2  0  0  0  0
 28 29  2  0  0  0  0
 29 24  1  0  0  0  0
  3  5  2  0  0  0  0
  6 14  1  0  0  0  0
 21 31  1  0  0  0  0
 31 32  2  0  0  0  0
  4 30  1  0  0  0  0
 14 15  1  0  0  0  0
 15 16  2  0  0  0  0
 30  1  1  0  0  0  0
 32 33  1  0  0  0  0
 33 34  1  0  0  0  0
 34 35  2  0  0  0  0
 35 31  1  0  0  0  0
  4  9  1  0  0  0  0
  5  6  1  0  0  0  0
 36 37  2  0  0  0  0
  6  7  1  0  0  0  0
 37 38  1  0  0  0  0
 16 17  1  0  0  0  0
 38 39  2  0  0  0  0
 17 18  2  0  0  0  0
 39 40  1  0  0  0  0
 18 19  1  0  0  0  0
 40 41  2  0  0  0  0
 41 36  1  0  0  0  0
 35 36  1  0  0  0  0
 19 15  1  0  0  0  0
 32 42  1  0  0  0  0
M  END
>  <Mol Weight>
581.688

>  <Formula>
C31H31N7O3S

>  <chembl_id>
CHEMBL500218

$$$$

  Mrv0541 06201412482D          

 41 47  0  0  0  0            999 V2000
   -4.5819  -10.7210    0.0000 C   0  0  0  0  0  0  0  0  0  0  0  0
   -4.5831  -11.5472    0.0000 C   0  0  0  0  0  0  0  0  0  0  0  0
   -3.8714  -11.9594    0.0000 C   0  0  0  0  0  0  0  0  0  0  0  0
   -3.8734  -10.3088    0.0000 C   0  0  0  0  0  0  0  0  0  0  0  0
   -3.1564  -10.7169    0.0000 C   0  0  0  0  0  0  0  0  0  0  0  0
   -3.1553  -11.5430    0.0000 C   0  0  0  0  0  0  0  0  0  0  0  0
   -2.4406  -11.9533    0.0000 N   0  0  0  0  0  0  0  0  0  0  0  0
   -2.4467  -10.3030    0.0000 C   0  0  0  0  0  0  0  0  0  0  0  0
   -1.7315  -10.7096    0.0000 C   0  0  0  0  0  0  0  0  0  0  0  0
   -1.7232  -11.5400    0.0000 C   0  0  0  0  0  0  0  0  0  0  0  0
   -0.9442  -10.4451    0.0000 C   0  0  0  0  0  0  0  0  0  0  0  0
   -0.4493  -11.1121    0.0000 N   0  0  0  0  0  0  0  0  0  0  0  0
   -0.9295  -11.7856    0.0000 C   0  0  0  0  0  0  0  0  0  0  0  0
   -0.5862  -12.5362    0.0000 C   0  0  0  0  0  0  0  0  0  0  0  0
    0.3699  -11.1880    0.0000 C   0  0  0  0  0  0  0  0  0  0  0  0
    0.7159  -11.9359    0.0000 C   0  0  0  0  0  0  0  0  0  0  0  0
    0.2421  -12.6133    0.0000 C   0  0  0  0  0  0  0  0  0  0  0  0
    0.7400  -13.2732    0.0000 C   0  0  2  0  0  0  0  0  0  0  0  0
    1.5215  -13.0037    0.0000 O   0  0  0  0  0  0  0  0  0  0  0  0
    1.5065  -12.1772    0.0000 C   0  0  0  0  0  0  0  0  0  0  0  0
    0.8452  -10.5153    0.0000 O   0  0  0  0  0  0  0  0  0  0  0  0
    2.1640  -11.6811    0.0000 O   0  0  0  0  0  0  0  0  0  0  0  0
   -0.0595  -13.4802    0.0000 C   0  0  0  0  0  0  0  0  0  0  0  0
   -0.2794  -14.2739    0.0000 C   0  0  0  0  0  0  0  0  0  0  0  0
    1.2185  -13.9436    0.0000 C   0  0  0  0  0  0  0  0  0  0  0  0
    0.8772  -14.6931    0.0000 O   0  0  0  0  0  0  0  0  0  0  0  0
    2.0407  -13.9423    0.0000 N   0  0  0  0  0  0  0  0  0  0  0  0
    2.4537  -14.6550    0.0000 C   0  0  0  0  0  0  0  0  0  0  0  0
    3.2773  -14.6538    0.0000 C   0  0  0  0  0  0  0  0  0  0  0  0
    3.6902  -15.3664    0.0000 N   0  0  0  0  0  0  0  0  0  0  0  0
    3.2760  -16.0782    0.0000 C   0  0  0  0  0  0  0  0  0  0  0  0
    3.6853  -16.7888    0.0000 C   0  0  0  0  0  0  0  0  0  0  0  0
    4.5094  -16.7917    0.0000 O   0  0  0  0  0  0  0  0  0  0  0  0
    4.9223  -16.0780    0.0000 C   0  0  0  0  0  0  0  0  0  0  0  0
    4.5112  -15.3612    0.0000 C   0  0  0  0  0  0  0  0  0  0  0  0
   -2.4515   -9.4794    0.0000 C   0  0  0  0  0  0  0  0  0  0  0  0
   -1.7429   -9.0633    0.0000 C   0  0  0  0  0  0  0  0  0  0  0  0
   -1.7456   -8.2433    0.0000 C   0  0  0  0  0  0  0  0  0  0  0  0
   -2.4594   -7.8316    0.0000 C   0  0  0  0  0  0  0  0  0  0  0  0
   -3.1721   -8.2462    0.0000 C   0  0  0  0  0  0  0  0  0  0  0  0
   -3.1711   -9.0725    0.0000 C   0  0  0  0  0  0  0  0  0  0  0  0
 17 18  1  0  0  0  0
 18 19  1  0  0  0  0
 19 20  1  0  0  0  0
 20 16  1  0  0  0  0
  5  4  2  0  0  0  0
 15 21  2  0  0  0  0
  4  1  1  0  0  0  0
 20 22  2  0  0  0  0
 18 23  1  6  0  0  0
 10 13  1  0  0  0  0
 23 24  1  0  0  0  0
 12 11  1  0  0  0  0
 18 25  1  0  0  0  0
 11  9  1  0  0  0  0
 25 26  2  0  0  0  0
  2  3  1  0  0  0  0
 25 27  1  0  0  0  0
  5  6  1  0  0  0  0
 27 28  1  0  0  0  0
 12 13  1  0  0  0  0
 28 29  1  0  0  0  0
  3  6  2  0  0  0  0
 29 30  1  0  0  0  0
 30 31  1  0  0  0  0
 13 14  2  0  0  0  0
 14 17  1  0  0  0  0
  6  7  1  0  0  0  0
 16 15  1  0  0  0  0
 15 12  1  0  0  0  0
 30 35  1  0  0  0  0
 31 32  1  0  0  0  0
 32 33  1  0  0  0  0
 33 34  1  0  0  0  0
 34 35  1  0  0  0  0
 16 17  2  0  0  0  0
  8 36  1  0  0  0  0
 36 37  1  0  0  0  0
  7 10  2  0  0  0  0
  1  2  2  0  0  0  0
  9  8  2  0  0  0  0
  8  5  1  0  0  0  0
  9 10  1  0  0  0  0
 36 41  1  0  0  0  0
 37 38  1  0  0  0  0
 38 39  1  0  0  0  0
 39 40  1  0  0  0  0
 40 41  1  0  0  0  0
M  END
>  <Mol Weight>
556.652

>  <Formula>
C32H36N4O5

>  <chembl_id>
CHEMBL500234

$$$$

  Mrv0541 06201412482D          

 46 51  0  0  0  0            999 V2000
    6.1146   -9.3803    0.0000 C   0  0  1  0  0  0  0  0  0  0  0  0
    5.6750  -10.1205    0.0000 C   0  0  0  0  0  0  0  0  0  0  0  0
    6.2796  -10.7251    0.0000 C   0  0  0  0  0  0  0  0  0  0  0  0
    7.0450  -10.3378    0.0000 C   0  0  0  0  0  0  0  0  0  0  0  0
    6.9128   -9.4943    0.0000 N   0  0  0  0  0  0  0  0  0  0  0  0
    1.8946   -8.3688    0.0000 C   0  0  0  0  0  0  0  0  0  0  0  0
    1.8924   -9.1943    0.0000 C   0  0  0  0  0  0  0  0  0  0  0  0
    2.6060   -9.6079    0.0000 C   0  0  0  0  0  0  0  0  0  0  0  0
    3.3256   -9.1934    0.0000 C   0  0  0  0  0  0  0  0  0  0  0  0
    3.3250   -8.3621    0.0000 C   0  0  0  0  0  0  0  0  0  0  0  0
    2.6073   -7.9553    0.0000 C   0  0  0  0  0  0  0  0  0  0  0  0
    4.0332   -7.9478    0.0000 C   0  0  0  0  0  0  0  0  0  0  0  0
    4.7527   -8.3595    0.0000 C   0  0  1  0  0  0  0  0  0  0  0  0
    5.4653   -7.9407    0.0000 C   0  0  0  0  0  0  0  0  0  0  0  0
    5.4586   -7.1149    0.0000 N   0  0  0  0  0  0  0  0  0  0  0  0
    4.7548   -9.1809    0.0000 N   0  0  0  0  0  0  0  0  0  0  0  0
    5.4743   -9.5879    0.0000 C   0  0  0  0  0  0  0  0  0  0  0  0
    6.1713   -6.7052    0.0000 C   0  0  2  0  0  0  0  0  0  0  0  0
    6.1691   -5.8793    0.0000 C   0  0  0  0  0  0  0  0  0  0  0  0
    6.8863   -7.1077    0.0000 C   0  0  0  0  0  0  0  0  0  0  0  0
    6.8885   -7.9336    0.0000 N   0  0  0  0  0  0  0  0  0  0  0  0
    7.5989   -6.6935    0.0000 O   0  0  0  0  0  0  0  0  0  0  0  0
    6.8773   -5.4606    0.0000 C   0  0  0  0  0  0  0  0  0  0  0  0
    7.6279   -5.7984    0.0000 C   0  0  0  0  0  0  0  0  0  0  0  0
    6.9574   -4.6451    0.0000 C   0  0  0  0  0  0  0  0  0  0  0  0
    7.7628   -4.4694    0.0000 C   0  0  0  0  0  0  0  0  0  0  0  0
    8.0170   -3.6866    0.0000 C   0  0  0  0  0  0  0  0  0  0  0  0
    7.4584   -3.0739    0.0000 C   0  0  0  0  0  0  0  0  0  0  0  0
    6.6492   -3.2571    0.0000 C   0  0  0  0  0  0  0  0  0  0  0  0
    6.4057   -4.0395    0.0000 C   0  0  0  0  0  0  0  0  0  0  0  0
    7.6033   -8.3453    0.0000 C   0  0  2  0  0  0  0  0  0  0  0  0
    7.6101   -9.1665    0.0000 C   0  0  0  0  0  0  0  0  0  0  0  0
    8.3161   -7.9264    0.0000 C   0  0  0  0  0  0  0  0  0  0  0  0
    9.0310   -8.3381    0.0000 C   0  0  0  0  0  0  0  0  0  0  0  0
    9.0314   -9.1593    0.0000 C   0  0  0  0  0  0  0  0  0  0  0  0
    9.7495   -9.5662    0.0000 C   0  0  0  0  0  0  0  0  0  0  0  0
   10.4638   -9.1520    0.0000 C   0  0  0  0  0  0  0  0  0  0  0  0
   10.4571   -8.3236    0.0000 C   0  0  0  0  0  0  0  0  0  0  0  0
    9.7381   -7.9137    0.0000 C   0  0  0  0  0  0  0  0  0  0  0  0
    8.3073   -9.6076    0.0000 O   0  0  0  0  0  0  0  0  0  0  0  0
    5.2674  -10.3859    0.0000 O   0  0  0  0  0  0  0  0  0  0  0  0
    6.6532   -8.7707    0.0000 H   0  0  0  0  0  0  0  0  0  0  0  0
    6.1801   -8.3488    0.0000 O   0  0  0  0  0  0  0  0  0  0  0  0
   11.1783   -9.5558    0.0000 O   0  0  0  0  0  0  0  0  0  0  0  0
   11.1836  -10.3771    0.0000 C   0  0  0  0  0  0  0  0  0  0  0  0
    8.1772   -5.1828    0.0000 N   0  0  0  0  0  0  0  0  0  0  0  0
  1  2  1  0  0  0  0
  2  3  1  0  0  0  0
  3  4  1  0  0  0  0
  4  5  1  0  0  0  0
  5  1  1  0  0  0  0
  6  7  2  0  0  0  0
  7  8  1  0  0  0  0
  8  9  2  0  0  0  0
  9 10  1  0  0  0  0
 10 11  2  0  0  0  0
 11  6  1  0  0  0  0
 10 12  1  0  0  0  0
 13 12  1  1  0  0  0
 13 14  1  0  0  0  0
 14 15  1  0  0  0  0
 13 16  1  0  0  0  0
 16 17  1  0  0  0  0
 17  1  1  0  0  0  0
 15 18  1  0  0  0  0
 18 19  1  6  0  0  0
 18 20  1  0  0  0  0
 20 21  1  0  0  0  0
 20 22  2  0  0  0  0
 19 23  1  0  0  0  0
 23 24  2  0  0  0  0
 25 23  1  0  0  0  0
 25 26  2  0  0  0  0
 26 27  1  0  0  0  0
 27 28  2  0  0  0  0
 28 29  1  0  0  0  0
 29 30  2  0  0  0  0
 30 25  1  0  0  0  0
 21 31  1  0  0  0  0
 31 32  1  0  0  0  0
 31 33  1  1  0  0  0
 33 34  1  0  0  0  0
 34 35  2  0  0  0  0
 35 36  1  0  0  0  0
 36 37  2  0  0  0  0
 37 38  1  0  0  0  0
 38 39  2  0  0  0  0
 39 34  1  0  0  0  0
 32  5  1  0  0  0  0
 32 40  2  0  0  0  0
 17 41  2  0  0  0  0
  1 42  1  1  0  0  0
 14 43  2  0  0  0  0
 37 44  1  0  0  0  0
 44 45  1  0  0  0  0
 24 46  1  0  0  0  0
 46 26  1  0  0  0  0
M  END
>  <Mol Weight>
607.6988

>  <Formula>
C35H37N5O5

>  <chembl_id>
CHEMBL507127

$$$$

  Mrv0541 06201412482D          

 42 46  0  0  0  0            999 V2000
   -1.6975    1.9878    0.0000 C   0  0  0  0  0  0  0  0  0  0  0  0
   -2.2697    1.6589    0.0000 C   0  0  0  0  0  0  0  0  0  0  0  0
   -2.8405    1.9902    0.0000 O   0  0  0  0  0  0  0  0  0  0  0  0
   -2.2710    0.8335    0.0000 N   0  0  0  0  0  0  0  0  0  0  0  0
   -1.5573    0.4192    0.0000 C   0  0  0  0  0  0  0  0  0  0  0  0
   -1.5573   -0.4192    0.0000 C   0  0  0  0  0  0  0  0  0  0  0  0
   -0.8186   -0.8386    0.0000 C   0  0  0  0  0  0  0  0  0  0  0  0
    0.0000   -0.4192    0.0000 C   0  0  0  0  0  0  0  0  0  0  0  0
    0.4093   -0.9084    0.0000 N   0  0  0  0  0  0  0  0  0  0  0  0
    1.2278   -0.7787    0.0000 C   0  0  0  0  0  0  0  0  0  0  0  0
    1.6178   -1.3110    0.0000 O   0  0  0  0  0  0  0  0  0  0  0  0
    1.6172    0.0000    0.0000 C   0  0  1  0  0  0  0  0  0  0  0  0
    1.2378    0.7687    0.0000 N   0  0  0  0  0  0  0  0  0  0  0  0
    1.4748    1.5601    0.0000 C   0  0  0  0  0  0  0  0  0  0  0  0
    2.2781    1.7500    0.0000 C   0  0  0  0  0  0  0  0  0  0  0  0
    2.7306    1.2695    0.0000 O   0  0  0  0  0  0  0  0  0  0  0  0
    2.5159    2.5404    0.0000 N   0  0  0  0  0  0  0  0  0  0  0  0
    3.3191    2.7303    0.0000 C   0  0  0  0  0  0  0  0  0  0  0  0
    3.5579    3.5199    0.0000 C   0  0  0  0  0  0  0  0  0  0  0  0
    4.3611    3.7081    0.0000 C   0  0  0  0  0  0  0  0  0  0  0  0
    4.9257    3.1065    0.0000 C   0  0  0  0  0  0  0  0  0  0  0  0
    4.6870    2.3168    0.0000 C   0  0  0  0  0  0  0  0  0  0  0  0
    3.8837    2.1287    0.0000 C   0  0  0  0  0  0  0  0  0  0  0  0
    0.9084    2.1605    0.0000 C   0  0  0  0  0  0  0  0  0  0  0  0
    0.1053    1.9719    0.0000 C   0  0  0  0  0  0  0  0  0  0  0  0
   -0.4597    2.5731    0.0000 C   0  0  0  0  0  0  0  0  0  0  0  0
   -0.2215    3.3630    0.0000 C   0  0  0  0  0  0  0  0  0  0  0  0
    0.5817    3.5516    0.0000 C   0  0  0  0  0  0  0  0  0  0  0  0
    1.1465    2.9504    0.0000 C   0  0  0  0  0  0  0  0  0  0  0  0
   -0.7854    3.9656    0.0000 N   0  3  0  0  0  0  0  0  0  0  0  0
   -1.4282    3.8159    0.0000 O   0  5  0  0  0  0  0  0  0  0  0  0
   -0.5940    4.5972    0.0000 O   0  0  0  0  0  0  0  0  0  0  0  0
    0.4293    0.9284    0.0000 C   0  0  0  0  0  0  0  0  0  0  0  0
    0.2106    1.5511    0.0000 O   0  0  0  0  0  0  0  0  0  0  0  0
    0.0000    0.4192    0.0000 C   0  0  0  0  0  0  0  0  0  0  0  0
   -0.8186    0.8386    0.0000 C   0  0  0  0  0  0  0  0  0  0  0  0
    2.4426   -0.0021    0.0000 C   0  0  0  0  0  0  0  0  0  0  0  0
    2.8222   -0.7366    0.0000 C   0  0  0  0  0  0  0  0  0  0  0  0
    3.6463   -0.7755    0.0000 C   0  0  0  0  0  0  0  0  0  0  0  0
    4.0920   -0.0813    0.0000 C   0  0  0  0  0  0  0  0  0  0  0  0
    3.7136    0.6518    0.0000 C   0  0  0  0  0  0  0  0  0  0  0  0
    2.8896    0.6907    0.0000 C   0  0  0  0  0  0  0  0  0  0  0  0
  1  2  1  0  0  0  0
  2  3  2  0  0  0  0
  2  4  1  0  0  0  0
  4  5  1  0  0  0  0
  5  6  2  0  0  0  0
  6  7  1  0  0  0  0
  7  8  2  0  0  0  0
  8  9  1  0  0  0  0
  9 10  1  0  0  0  0
 10 11  2  0  0  0  0
 10 12  1  0  0  0  0
 12 13  1  0  0  0  0
 13 14  1  0  0  0  0
 14 15  1  0  0  0  0
 15 16  2  0  0  0  0
 15 17  1  0  0  0  0
 17 18  1  0  0  0  0
 18 19  1  0  0  0  0
 19 20  1  0  0  0  0
 20 21  1  0  0  0  0
 21 22  1  0  0  0  0
 22 23  1  0  0  0  0
 23 18  1  0  0  0  0
 14 24  1  0  0  0  0
 24 25  2  0  0  0  0
 25 26  1  0  0  0  0
 26 27  2  0  0  0  0
 27 28  1  0  0  0  0
 28 29  2  0  0  0  0
 29 24  1  0  0  0  0
 27 30  1  0  0  0  0
 30 31  1  0  0  0  0
 30 32  2  0  0  0  0
 13 33  1  0  0  0  0
 33 34  2  0  0  0  0
 33 35  1  0  0  0  0
 35  8  1  0  0  0  0
 35 36  2  0  0  0  0
 36  5  1  0  0  0  0
 12 37  1  1  0  0  0
 37 38  2  0  0  0  0
 38 39  1  0  0  0  0
 39 40  2  0  0  0  0
 40 41  1  0  0  0  0
 41 42  2  0  0  0  0
 42 37  1  0  0  0  0
M  CHG  2  30   1  31  -1
M  END
>  <Mol Weight>
569.6077

>  <Formula>
C31H31N5O6

>  <chembl_id>
CHEMBL7892

$$$$

  Mrv0541 06201412482D          

 47 53  0  0  0  0            999 V2000
   -4.7208   -4.6515    0.0000 C   0  0  0  0  0  0  0  0  0  0  0  0
   -4.7208   -5.4752    0.0000 N   0  0  0  0  0  0  0  0  0  0  0  0
   -4.0096   -5.8850    0.0000 C   0  0  2  0  0  0  0  0  0  0  0  0
   -4.0096   -4.2333    0.0000 C   0  0  0  0  0  0  0  0  0  0  0  0
   -3.2944   -4.6515    0.0000 C   0  0  0  0  0  0  0  0  0  0  0  0
   -3.2968   -5.4766    0.0000 C   0  0  0  0  0  0  0  0  0  0  0  0
   -2.5831   -5.8866    0.0000 C   0  0  0  0  0  0  0  0  0  0  0  0
   -1.8705   -5.4771    0.0000 C   0  0  0  0  0  0  0  0  0  0  0  0
   -1.8741   -4.6472    0.0000 C   0  0  0  0  0  0  0  0  0  0  0  0
   -2.5844   -4.2388    0.0000 C   0  0  0  0  0  0  0  0  0  0  0  0
   -1.1570   -4.2319    0.0000 O   0  0  0  0  0  0  0  0  0  0  0  0
   -1.1610   -3.4039    0.0000 C   0  0  0  0  0  0  0  0  0  0  0  0
   -5.4389   -5.8929    0.0000 C   0  0  0  0  0  0  0  0  0  0  0  0
   -4.0078   -6.7130    0.0000 C   0  0  0  0  0  0  0  0  0  0  0  0
   -3.2921   -7.1234    0.0000 C   0  0  0  0  0  0  0  0  0  0  0  0
   -3.2932   -7.9483    0.0000 C   0  0  0  0  0  0  0  0  0  0  0  0
   -2.5745   -8.3627    0.0000 C   0  0  0  0  0  0  0  0  0  0  0  0
   -1.8591   -7.9491    0.0000 C   0  0  0  0  0  0  0  0  0  0  0  0
   -1.8649   -7.1146    0.0000 C   0  0  0  0  0  0  0  0  0  0  0  0
   -2.5803   -6.7101    0.0000 C   0  0  0  0  0  0  0  0  0  0  0  0
   -1.1425   -8.3580    0.0000 O   0  0  0  0  0  0  0  0  0  0  0  0
   -1.1390   -9.1860    0.0000 C   0  0  0  0  0  0  0  0  0  0  0  0
   -1.1484   -6.7007    0.0000 O   0  0  0  0  0  0  0  0  0  0  0  0
   -0.3234   -6.6892    0.0000 C   0  0  0  0  0  0  0  0  0  0  0  0
    3.7807   -5.1999    0.0000 C   0  0  0  0  0  0  0  0  0  0  0  0
    3.3770   -5.9211    0.0000 N   0  0  0  0  0  0  0  0  0  0  0  0
    2.5563   -5.9319    0.0000 C   0  0  2  0  0  0  0  0  0  0  0  0
    3.3580   -4.4880    0.0000 C   0  0  0  0  0  0  0  0  0  0  0  0
    2.5348   -4.5076    0.0000 C   0  0  0  0  0  0  0  0  0  0  0  0
    2.1345   -5.2276    0.0000 C   0  0  0  0  0  0  0  0  0  0  0  0
    1.3112   -5.2393    0.0000 C   0  0  0  0  0  0  0  0  0  0  0  0
    0.8886   -4.5358    0.0000 C   0  0  0  0  0  0  0  0  0  0  0  0
    1.2907   -3.8131    0.0000 C   0  0  0  0  0  0  0  0  0  0  0  0
    2.1137   -3.8010    0.0000 C   0  0  0  0  0  0  0  0  0  0  0  0
    0.8687   -3.1007    0.0000 O   0  0  0  0  0  0  0  0  0  0  0  0
    0.0594   -4.5454    0.0000 O   0  0  0  0  0  0  0  0  0  0  0  0
    1.2759   -2.3814    0.0000 C   0  0  0  0  0  0  0  0  0  0  0  0
    3.8008   -6.6324    0.0000 C   0  0  0  0  0  0  0  0  0  0  0  0
    2.1531   -6.6558    0.0000 C   0  0  0  0  0  0  0  0  0  0  0  0
    1.3261   -6.6684    0.0000 C   0  0  0  0  0  0  0  0  0  0  0  0
    0.9282   -7.3853    0.0000 C   0  0  0  0  0  0  0  0  0  0  0  0
    0.0990   -7.4005    0.0000 C   0  0  0  0  0  0  0  0  0  0  0  0
    0.0859   -5.9645    0.0000 C   0  0  0  0  0  0  0  0  0  0  0  0
    0.9097   -5.9567    0.0000 C   0  0  0  0  0  0  0  0  0  0  0  0
   -1.1549   -5.8880    0.0000 O   0  0  0  0  0  0  0  0  0  0  0  0
    3.0686   -6.7907    0.0000 H   0  0  0  0  0  0  0  0  0  0  0  0
   -4.8749   -6.3863    0.0000 H   0  0  0  0  0  0  0  0  0  0  0  0
  1  2  1  0  0  0  0
  1  4  1  0  0  0  0
  2  3  1  0  0  0  0
  3  6  1  0  0  0  0
  5  4  1  0  0  0  0
  5  6  2  0  0  0  0
  6  7  1  0  0  0  0
  7  8  2  0  0  0  0
  8  9  1  0  0  0  0
  9 10  2  0  0  0  0
 10  5  1  0  0  0  0
  9 11  1  0  0  0  0
 11 12  1  0  0  0  0
  2 13  1  0  0  0  0
  3 14  1  0  0  0  0
 14 15  1  0  0  0  0
 15 16  2  0  0  0  0
 16 17  1  0  0  0  0
 17 18  2  0  0  0  0
 18 19  1  0  0  0  0
 19 20  2  0  0  0  0
 20 15  1  0  0  0  0
 18 21  1  0  0  0  0
 21 22  1  0  0  0  0
 19 23  1  0  0  0  0
 23 24  1  0  0  0  0
 25 26  1  0  0  0  0
 25 28  1  0  0  0  0
 26 27  1  0  0  0  0
 27 30  1  0  0  0  0
 29 28  1  0  0  0  0
 29 30  2  0  0  0  0
 30 31  1  0  0  0  0
 31 32  2  0  0  0  0
 32 33  1  0  0  0  0
 33 34  2  0  0  0  0
 34 29  1  0  0  0  0
 33 35  1  0  0  0  0
 32 36  1  0  0  0  0
 35 37  1  0  0  0  0
 26 38  1  0  0  0  0
 27 39  1  0  0  0  0
 39 40  1  0  0  0  0
 40 41  2  0  0  0  0
 41 42  1  0  0  0  0
 42 24  2  0  0  0  0
 24 43  1  0  0  0  0
 43 44  2  0  0  0  0
 44 40  1  0  0  0  0
  8 45  1  0  0  0  0
 45 31  1  0  0  0  0
 27 46  1  6  0  0  0
  3 47  1  1  0  0  0
M  END
>  <Mol Weight>
608.7233

>  <Formula>
C37H40N2O6

>  <chembl_id>
CHEMBL507220

$$$$

  Mrv0541 06201412482D          

 41 46  0  0  0  0            999 V2000
   -2.0261  -23.2569    0.0000 C   0  0  0  0  0  0  0  0  0  0  0  0
   -1.2331  -23.4677    0.0000 C   0  0  0  0  0  0  0  0  0  0  0  0
   -0.7876  -22.7787    0.0000 N   0  0  0  0  0  0  0  0  0  0  0  0
   -1.3051  -22.1421    0.0000 C   0  0  0  0  0  0  0  0  0  0  0  0
   -2.0705  -22.4376    0.0000 C   0  0  0  0  0  0  0  0  0  0  0  0
   -3.3706  -19.1055    0.0000 C   0  0  0  0  0  0  0  0  0  0  0  0
   -4.0941  -19.5049    0.0000 C   0  0  0  0  0  0  0  0  0  0  0  0
   -4.1098  -20.3266    0.0000 C   0  0  0  0  0  0  0  0  0  0  0  0
   -3.4039  -20.7552    0.0000 N   0  0  0  0  0  0  0  0  0  0  0  0
   -2.6804  -20.3558    0.0000 C   0  0  0  0  0  0  0  0  0  0  0  0
   -2.6629  -19.5278    0.0000 C   0  0  0  0  0  0  0  0  0  0  0  0
   -3.9989  -18.5797    0.0000 C   0  0  0  0  0  0  0  0  0  0  0  0
   -2.6694  -18.6685    0.0000 N   0  0  0  0  0  0  0  0  0  0  0  0
   -2.8700  -17.8682    0.0000 C   0  0  0  0  0  0  0  0  0  0  0  0
   -3.6930  -17.8117    0.0000 N   0  0  0  0  0  0  0  0  0  0  0  0
   -3.4209  -21.5800    0.0000 C   0  0  0  0  0  0  0  0  0  0  0  0
   -2.7150  -22.0071    0.0000 C   0  0  0  0  0  0  0  0  0  0  0  0
   -2.7319  -22.8319    0.0000 C   0  0  0  0  0  0  0  0  0  0  0  0
   -2.0431  -24.0839    0.0000 C   0  0  0  0  0  0  0  0  0  0  0  0
   -2.7680  -24.4785    0.0000 C   0  0  0  0  0  0  0  0  0  0  0  0
   -2.7855  -25.3047    0.0000 C   0  0  0  0  0  0  0  0  0  0  0  0
   -2.0773  -25.7338    0.0000 C   0  0  0  0  0  0  0  0  0  0  0  0
   -1.3501  -25.3306    0.0000 C   0  0  0  0  0  0  0  0  0  0  0  0
   -1.3363  -24.5057    0.0000 C   0  0  0  0  0  0  0  0  0  0  0  0
    0.0362  -22.7340    0.0000 C   0  0  0  0  0  0  0  0  0  0  0  0
    0.4869  -23.4251    0.0000 O   0  0  0  0  0  0  0  0  0  0  0  0
    0.4094  -21.9982    0.0000 C   0  0  0  0  0  0  0  0  0  0  0  0
    1.2220  -21.8650    0.0000 O   0  0  0  0  0  0  0  0  0  0  0  0
    1.3496  -21.0499    0.0000 C   0  0  0  0  0  0  0  0  0  0  0  0
    0.6137  -20.6767    0.0000 C   0  0  0  0  0  0  0  0  0  0  0  0
    0.0316  -21.2612    0.0000 C   0  0  0  0  0  0  0  0  0  0  0  0
   -3.5085  -25.7019    0.0000 Cl  0  0  0  0  0  0  0  0  0  0  0  0
   -2.0933  -26.5586    0.0000 Cl  0  0  0  0  0  0  0  0  0  0  0  0
   -1.9045  -18.9775    0.0000 C   0  0  0  0  0  0  0  0  0  0  0  0
   -1.7945  -19.7938    0.0000 C   0  0  0  0  0  0  0  0  0  0  0  0
   -1.0305  -20.1029    0.0000 C   0  0  0  0  0  0  0  0  0  0  0  0
   -0.3794  -19.5948    0.0000 C   0  0  0  0  0  0  0  0  0  0  0  0
   -0.4974  -18.7739    0.0000 C   0  0  0  0  0  0  0  0  0  0  0  0
   -1.2616  -18.4686    0.0000 C   0  0  0  0  0  0  0  0  0  0  0  0
   -2.3405  -17.2356    0.0000 O   0  0  0  0  0  0  0  0  0  0  0  0
   -4.7988  -18.7818    0.0000 O   0  0  0  0  0  0  0  0  0  0  0  0
  7  8  1  0  0  0  0
 19 20  2  0  0  0  0
  8  9  1  0  0  0  0
 20 21  1  0  0  0  0
  9 10  1  0  0  0  0
 21 22  2  0  0  0  0
 10 11  1  0  0  0  0
 22 23  1  0  0  0  0
  6  7  1  0  0  0  0
 23 24  2  0  0  0  0
 24 19  1  0  0  0  0
 12  6  1  0  0  0  0
  3 25  1  0  0  0  0
  1  2  1  0  0  0  0
 25 26  2  0  0  0  0
 25 27  1  0  0  0  0
 27 28  1  0  0  0  0
  2  3  1  0  0  0  0
  6 13  1  0  0  0  0
 13 14  1  0  0  0  0
 14 15  1  0  0  0  0
 28 29  1  0  0  0  0
 29 30  2  0  0  0  0
 30 31  1  0  0  0  0
 31 27  2  0  0  0  0
 15 12  1  0  0  0  0
 21 32  1  0  0  0  0
  3  4  1  0  0  0  0
 22 33  1  0  0  0  0
  9 16  1  0  0  0  0
 13 34  1  0  0  0  0
  4  5  1  0  0  0  0
 34 35  2  0  0  0  0
 16 17  1  0  0  0  0
 35 36  1  0  0  0  0
  5  1  1  0  0  0  0
 36 37  2  0  0  0  0
 17 18  1  0  0  0  0
 37 38  1  0  0  0  0
 18  1  1  0  0  0  0
 38 39  2  0  0  0  0
 39 34  1  0  0  0  0
  6 11  1  0  0  0  0
 14 40  2  0  0  0  0
  1 19  1  0  0  0  0
 12 41  2  0  0  0  0
M  END
>  <Mol Weight>
595.516

>  <Formula>
C31H32Cl2N4O4

>  <chembl_id>
CHEMBL507223

$$$$

  Mrv0541 06201412482D          

 41 45  0  0  0  0            999 V2000
   -5.7453  -29.6057    0.0000 C   0  0  0  0  0  0  0  0  0  0  0  0
   -6.1663  -30.3172    0.0000 C   0  0  0  0  0  0  0  0  0  0  0  0
   -5.7622  -31.0342    0.0000 C   0  0  0  0  0  0  0  0  0  0  0  0
   -4.9335  -31.0435    0.0000 C   0  0  0  0  0  0  0  0  0  0  0  0
   -4.5145  -30.3267    0.0000 C   0  0  0  0  0  0  0  0  0  0  0  0
   -4.9251  -29.6106    0.0000 C   0  0  0  0  0  0  0  0  0  0  0  0
   -4.5098  -28.8986    0.0000 N   0  0  0  0  0  0  0  0  0  0  0  0
   -4.9188  -28.1830    0.0000 C   0  0  0  0  0  0  0  0  0  0  0  0
   -4.5025  -27.4724    0.0000 C   0  0  0  0  0  0  0  0  0  0  0  0
   -4.9107  -26.7573    0.0000 C   0  0  0  0  0  0  0  0  0  0  0  0
   -5.7357  -26.7533    0.0000 N   0  0  0  0  0  0  0  0  0  0  0  0
   -6.1508  -27.4702    0.0000 C   0  0  0  0  0  0  0  0  0  0  0  0
   -5.7402  -28.1822    0.0000 N   0  0  0  0  0  0  0  0  0  0  0  0
   -4.4951  -26.0456    0.0000 N   0  0  0  0  0  0  0  0  0  0  0  0
   -3.6726  -26.0528    0.0000 C   0  0  0  0  0  0  0  0  0  0  0  0
   -3.2571  -25.3451    0.0000 C   0  0  0  0  0  0  0  0  0  0  0  0
   -3.6622  -24.6270    0.0000 C   0  0  0  0  0  0  0  0  0  0  0  0
   -4.4872  -24.6209    0.0000 C   0  0  0  0  0  0  0  0  0  0  0  0
   -4.9073  -25.3330    0.0000 C   0  0  0  0  0  0  0  0  0  0  0  0
   -3.6763  -27.4750    0.0000 N   0  3  0  0  0  0  0  0  0  0  0  0
   -3.2602  -26.7635    0.0000 O   0  0  0  0  0  0  0  0  0  0  0  0
   -3.2681  -28.1909    0.0000 O   0  5  0  0  0  0  0  0  0  0  0  0
   -3.2465  -23.9144    0.0000 C   0  0  0  0  0  0  0  0  0  0  0  0
   -2.4262  -23.8352    0.0000 O   0  0  0  0  0  0  0  0  0  0  0  0
   -2.2478  -23.0307    0.0000 N   0  0  0  0  0  0  0  0  0  0  0  0
   -2.9580  -22.6123    0.0000 C   0  0  0  0  0  0  0  0  0  0  0  0
   -3.5752  -23.1586    0.0000 N   0  0  0  0  0  0  0  0  0  0  0  0
   -6.1820  -31.7436    0.0000 S   0  0  0  0  0  0  0  0  0  0  0  0
   -6.6023  -32.4531    0.0000 C   0  0  0  0  0  0  0  0  0  0  0  0
   -5.4728  -32.1634    0.0000 O   0  0  0  0  0  0  0  0  0  0  0  0
   -6.8908  -31.3231    0.0000 O   0  0  0  0  0  0  0  0  0  0  0  0
   -2.9669  -21.7850    0.0000 C   0  0  0  0  0  0  0  0  0  0  0  0
   -2.2526  -21.3654    0.0000 C   0  0  0  0  0  0  0  0  0  0  0  0
   -2.2611  -20.5388    0.0000 C   0  0  0  0  0  0  0  0  0  0  0  0
   -2.9826  -20.1321    0.0000 C   0  0  0  0  0  0  0  0  0  0  0  0
   -3.6970  -20.5580    0.0000 C   0  0  0  0  0  0  0  0  0  0  0  0
   -3.6849  -21.3831    0.0000 C   0  0  0  0  0  0  0  0  0  0  0  0
   -1.5517  -20.1194    0.0000 C   0  0  0  0  0  0  0  0  0  0  0  0
   -0.8425  -19.7018    0.0000 F   0  0  0  0  0  0  0  0  0  0  0  0
   -1.9705  -19.4096    0.0000 F   0  0  0  0  0  0  0  0  0  0  0  0
   -1.1319  -20.8286    0.0000 F   0  0  0  0  0  0  0  0  0  0  0  0
  4  5  1  0  0  0  0
  9 10  1  0  0  0  0
  2  3  1  0  0  0  0
 20 21  2  0  0  0  0
 20 22  1  0  0  0  0
  9 20  1  0  0  0  0
 23 24  1  0  0  0  0
 10 11  2  0  0  0  0
  5  6  2  0  0  0  0
 11 12  1  0  0  0  0
  6  1  1  0  0  0  0
 12 13  2  0  0  0  0
 24 25  1  0  0  0  0
 25 26  2  0  0  0  0
 26 27  1  0  0  0  0
 27 23  2  0  0  0  0
 17 23  1  0  0  0  0
 13  8  1  0  0  0  0
  3 28  1  0  0  0  0
  1  2  2  0  0  0  0
 28 29  1  0  0  0  0
 10 14  1  0  0  0  0
 28 30  2  0  0  0  0
 14 15  1  0  0  0  0
 28 31  2  0  0  0  0
  6  7  1  0  0  0  0
 26 32  1  0  0  0  0
  3  4  2  0  0  0  0
 32 33  2  0  0  0  0
  7  8  1  0  0  0  0
 33 34  1  0  0  0  0
 34 35  2  0  0  0  0
  8  9  2  0  0  0  0
 35 36  1  0  0  0  0
 14 19  1  0  0  0  0
 36 37  2  0  0  0  0
 37 32  1  0  0  0  0
 15 16  1  0  0  0  0
 34 38  1  0  0  0  0
 16 17  1  0  0  0  0
 38 39  1  0  0  0  0
 17 18  1  0  0  0  0
 38 40  1  0  0  0  0
 18 19  1  0  0  0  0
 38 41  1  0  0  0  0
M  CHG  2  20   1  22  -1
M  END
>  <Mol Weight>
589.546

>  <Formula>
C25H22F3N7O5S

>  <chembl_id>
CHEMBL500750

$$$$

  Mrv0541 06201412482D          

 41 45  0  0  0  0            999 V2000
   10.4027  -17.5401    0.0000 C   0  0  0  0  0  0  0  0  0  0  0  0
   10.3651  -18.3668    0.0000 C   0  0  0  0  0  0  0  0  0  0  0  0
   11.0592  -18.8107    0.0000 C   0  0  0  0  0  0  0  0  0  0  0  0
   11.1300  -17.1589    0.0000 C   0  0  0  0  0  0  0  0  0  0  0  0
   11.8294  -17.5988    0.0000 C   0  0  0  0  0  0  0  0  0  0  0  0
   11.7935  -18.4296    0.0000 C   0  0  0  0  0  0  0  0  0  0  0  0
   12.5725  -18.7207    0.0000 N   0  0  0  0  0  0  0  0  0  0  0  0
   13.0900  -18.0697    0.0000 C   0  0  0  0  0  0  0  0  0  0  0  0
   12.6307  -17.3765    0.0000 N   0  0  0  0  0  0  0  0  0  0  0  0
   13.9143  -18.1053    0.0000 N   0  0  0  0  0  0  0  0  0  0  0  0
   14.3572  -17.4094    0.0000 C   0  0  0  0  0  0  0  0  0  0  0  0
   15.1814  -17.4451    0.0000 C   0  0  0  0  0  0  0  0  0  0  0  0
   13.9761  -16.6778    0.0000 O   0  0  0  0  0  0  0  0  0  0  0  0
    9.7068  -17.0972    0.0000 N   0  0  0  0  0  0  0  0  0  0  0  0
    9.7423  -16.2730    0.0000 C   0  0  0  0  0  0  0  0  0  0  0  0
    8.9752  -17.4785    0.0000 C   0  0  0  0  0  0  0  0  0  0  0  0
    8.2791  -17.0355    0.0000 C   0  0  0  0  0  0  0  0  0  0  0  0
    8.9396  -18.3027    0.0000 O   0  0  0  0  0  0  0  0  0  0  0  0
    8.3130  -16.2118    0.0000 C   0  0  0  0  0  0  0  0  0  0  0  0
    7.6179  -15.7690    0.0000 C   0  0  0  0  0  0  0  0  0  0  0  0
    6.8853  -16.1503    0.0000 C   0  0  0  0  0  0  0  0  0  0  0  0
    6.8522  -16.9788    0.0000 C   0  0  0  0  0  0  0  0  0  0  0  0
    7.5480  -17.4180    0.0000 C   0  0  0  0  0  0  0  0  0  0  0  0
   12.7931  -19.5156    0.0000 C   0  0  0  0  0  0  0  0  0  0  0  0
   12.2151  -20.1042    0.0000 C   0  0  0  0  0  0  0  0  0  0  0  0
   12.4358  -20.8991    0.0000 C   0  0  0  0  0  0  0  0  0  0  0  0
   11.8576  -21.4877    0.0000 O   0  0  0  0  0  0  0  0  0  0  0  0
   13.2345  -21.1055    0.0000 N   0  0  0  0  0  0  0  0  0  0  0  0
   15.6340  -18.1328    0.0000 S   0  0  0  0  0  0  0  0  0  0  0  0
   16.4290  -17.9121    0.0000 C   0  0  0  0  0  0  0  0  0  0  0  0
   16.4647  -17.0878    0.0000 C   0  0  0  0  0  0  0  0  0  0  0  0
   15.6917  -16.7993    0.0000 C   0  0  0  0  0  0  0  0  0  0  0  0
   17.0753  -18.4249    0.0000 C   0  0  0  0  0  0  0  0  0  0  0  0
   17.0677  -19.2499    0.0000 C   0  0  0  0  0  0  0  0  0  0  0  0
   17.8198  -18.0694    0.0000 C   0  0  0  0  0  0  0  0  0  0  0  0
   17.7784  -19.6689    0.0000 C   0  0  0  0  0  0  0  0  0  0  0  0
   17.7683  -20.4932    0.0000 C   0  0  0  0  0  0  0  0  0  0  0  0
   18.4780  -20.9121    0.0000 C   0  0  0  0  0  0  0  0  0  0  0  0
   19.1973  -20.5062    0.0000 N   0  0  0  0  0  0  0  0  0  0  0  0
   19.2023  -19.6769    0.0000 C   0  0  0  0  0  0  0  0  0  0  0  0
   18.4919  -19.2617    0.0000 C   0  0  0  0  0  0  0  0  0  0  0  0
 19 20  1  0  0  0  0
  4  1  1  0  0  0  0
 20 21  2  0  0  0  0
  8 10  2  0  0  0  0
 21 22  1  0  0  0  0
  5  6  1  0  0  0  0
 22 23  2  0  0  0  0
 23 17  1  0  0  0  0
 10 11  1  0  0  0  0
  7 24  1  0  0  0  0
 24 25  1  0  0  0  0
 11 12  1  0  0  0  0
 25 26  1  0  0  0  0
  2  3  1  0  0  0  0
 26 27  2  0  0  0  0
 11 13  2  0  0  0  0
 26 28  1  0  0  0  0
 12 29  1  0  0  0  0
  3  6  2  0  0  0  0
  1 14  1  0  0  0  0
  1  2  2  0  0  0  0
 14 15  1  0  0  0  0
 29 30  1  0  0  0  0
 30 31  2  0  0  0  0
 31 32  1  0  0  0  0
 32 12  2  0  0  0  0
  5  4  2  0  0  0  0
 30 33  1  0  0  0  0
 14 16  1  0  0  0  0
 33 34  2  0  0  0  0
  6  7  1  0  0  0  0
 33 35  1  0  0  0  0
 16 17  1  0  0  0  0
 34 36  1  0  0  0  0
  7  8  1  0  0  0  0
 36 37  2  0  0  0  0
 16 18  2  0  0  0  0
 37 38  1  0  0  0  0
  8  9  1  0  0  0  0
 38 39  2  0  0  0  0
 17 19  2  0  0  0  0
 39 40  1  0  0  0  0
  9  5  1  0  0  0  0
 40 41  2  0  0  0  0
 41 36  1  0  0  0  0
M  END
>  <Mol Weight>
564.657

>  <Formula>
C31H28N6O3S

>  <chembl_id>
CHEMBL501963

$$$$

  Mrv0541 06201412482D          

 41 46  0  0  0  0            999 V2000
   12.7654  -10.8882    0.0000 N   0  0  0  0  0  0  0  0  0  0  0  0
   12.7641  -11.7155    0.0000 C   0  0  0  0  0  0  0  0  0  0  0  0
   13.4770  -12.1284    0.0000 N   0  0  0  0  0  0  0  0  0  0  0  0
   13.4750  -10.4754    0.0000 C   0  0  0  0  0  0  0  0  0  0  0  0
   14.1931  -10.8841    0.0000 C   0  0  0  0  0  0  0  0  0  0  0  0
   14.1936  -11.7155    0.0000 C   0  0  0  0  0  0  0  0  0  0  0  0
   14.9845  -11.9720    0.0000 N   0  0  0  0  0  0  0  0  0  0  0  0
   15.4728  -11.2990    0.0000 C   0  0  0  0  0  0  0  0  0  0  0  0
   14.9836  -10.6267    0.0000 C   0  0  0  0  0  0  0  0  0  0  0  0
   12.0492  -12.1270    0.0000 N   0  0  0  0  0  0  0  0  0  0  0  0
   13.4712   -9.6505    0.0000 N   0  0  0  0  0  0  0  0  0  0  0  0
   12.0480  -12.9518    0.0000 C   0  0  0  0  0  0  0  0  0  0  0  0
   14.1835   -9.2348    0.0000 C   0  0  0  0  0  0  0  0  0  0  0  0
   11.3338  -13.3639    0.0000 C   0  0  0  0  0  0  0  0  0  0  0  0
   11.3323  -14.1880    0.0000 C   0  0  0  0  0  0  0  0  0  0  0  0
   12.7619  -13.3637    0.0000 C   0  0  0  0  0  0  0  0  0  0  0  0
   14.8984   -9.6468    0.0000 C   0  0  0  0  0  0  0  0  0  0  0  0
   15.6103   -9.2317    0.0000 C   0  0  0  0  0  0  0  0  0  0  0  0
   15.6069   -8.4060    0.0000 C   0  0  0  0  0  0  0  0  0  0  0  0
   14.8856   -7.9972    0.0000 C   0  0  0  0  0  0  0  0  0  0  0  0
   14.1767   -8.4146    0.0000 C   0  0  0  0  0  0  0  0  0  0  0  0
   10.6199  -12.9506    0.0000 O   0  0  0  0  0  0  0  0  0  0  0  0
   10.6208  -12.1258    0.0000 C   0  0  0  0  0  0  0  0  0  0  0  0
   13.4589   -8.0082    0.0000 C   0  0  0  0  0  0  0  0  0  0  0  0
   13.4518   -7.1833    0.0000 N   0  0  0  0  0  0  0  0  0  0  0  0
   12.7480   -8.4267    0.0000 O   0  0  0  0  0  0  0  0  0  0  0  0
   14.8789   -7.1723    0.0000 F   0  0  0  0  0  0  0  0  0  0  0  0
   12.7639  -14.1865    0.0000 C   0  0  0  0  0  0  0  0  0  0  0  0
   12.0509  -14.6023    0.0000 C   0  0  0  0  0  0  0  0  0  0  0  0
   12.2260  -15.4090    0.0000 C   0  0  0  0  0  0  0  0  0  0  0  0
   13.0474  -15.4918    0.0000 C   0  0  0  0  0  0  0  0  0  0  0  0
   13.3798  -14.7361    0.0000 N   0  0  0  0  0  0  0  0  0  0  0  0
   14.2013  -14.7329    0.0000 C   0  0  0  0  0  0  0  0  0  0  0  0
   14.6165  -15.4457    0.0000 C   0  0  0  0  0  0  0  0  0  0  0  0
   14.6110  -14.0170    0.0000 O   0  0  0  0  0  0  0  0  0  0  0  0
   15.4414  -15.4425    0.0000 N   0  0  0  0  0  0  0  0  0  0  0  0
   15.8511  -16.1552    0.0000 C   0  0  0  0  0  0  0  0  0  0  0  0
   16.6724  -16.1538    0.0000 C   0  0  0  0  0  0  0  0  0  0  0  0
   17.0858  -15.4397    0.0000 O   0  0  0  0  0  0  0  0  0  0  0  0
   16.6719  -14.7252    0.0000 C   0  0  0  0  0  0  0  0  0  0  0  0
   15.8444  -14.7247    0.0000 C   0  0  0  0  0  0  0  0  0  0  0  0
 18 19  2  0  0  0  0
  9  5  1  0  0  0  0
 19 20  1  0  0  0  0
  4  1  1  0  0  0  0
 20 21  2  0  0  0  0
 21 13  1  0  0  0  0
  2 10  1  0  0  0  0
 14 22  1  0  0  0  0
  5  6  1  0  0  0  0
 22 23  1  0  0  0  0
  4 11  1  0  0  0  0
 21 24  1  0  0  0  0
 24 25  1  0  0  0  0
 10 12  1  0  0  0  0
 24 26  2  0  0  0  0
  2  3  1  0  0  0  0
 20 27  1  0  0  0  0
 28 29  1  0  0  0  0
 11 13  1  0  0  0  0
  3  6  2  0  0  0  0
 12 14  2  0  0  0  0
  1  2  2  0  0  0  0
 14 15  1  0  0  0  0
 29 30  1  0  0  0  0
 30 31  1  0  0  0  0
 31 32  1  0  0  0  0
 32 28  1  0  0  0  0
 15 29  2  0  0  0  0
 32 33  1  0  0  0  0
  5  4  2  0  0  0  0
 33 34  1  0  0  0  0
 28 16  2  0  0  0  0
 33 35  2  0  0  0  0
 16 12  1  0  0  0  0
 34 36  1  0  0  0  0
 36 37  1  0  0  0  0
  6  7  1  0  0  0  0
 13 17  2  0  0  0  0
  7  8  1  0  0  0  0
 17 18  1  0  0  0  0
  8  9  2  0  0  0  0
 36 41  1  0  0  0  0
 37 38  1  0  0  0  0
 38 39  1  0  0  0  0
 39 40  1  0  0  0  0
 40 41  1  0  0  0  0
M  END
>  <Mol Weight>
560.5795

>  <Formula>
C28H29FN8O4

>  <chembl_id>
CHEMBL501964

$$$$

  Mrv0541 06201412482D          

 43 47  0  0  0  0            999 V2000
    8.9333  -19.2583    0.0000 C   0  0  0  0  0  0  0  0  0  0  0  0
    8.9333  -20.0833    0.0000 C   0  0  0  0  0  0  0  0  0  0  0  0
    9.6454  -20.4917    0.0000 C   0  0  0  0  0  0  0  0  0  0  0  0
    9.6454  -18.8417    0.0000 C   0  0  0  0  0  0  0  0  0  0  0  0
   10.3574  -19.2583    0.0000 C   0  0  1  0  0  0  0  0  0  0  0  0
   10.3539  -20.0833    0.0000 C   0  0  1  0  0  0  0  0  0  0  0  0
   11.0626  -20.4966    0.0000 C   0  0  0  0  0  0  0  0  0  0  0  0
   11.7794  -20.0894    0.0000 C   0  0  0  0  0  0  0  0  0  0  0  0
   11.0696  -18.8466    0.0000 C   0  0  2  0  0  0  0  0  0  0  0  0
   11.7791  -19.2669    0.0000 C   0  0  2  0  0  0  0  0  0  0  0  0
   12.4938  -18.8649    0.0000 C   0  0  2  0  0  0  0  0  0  0  0  0
   12.5054  -18.0410    0.0000 C   0  0  2  0  0  0  0  0  0  0  0  0
   11.7960  -17.6207    0.0000 C   0  0  0  0  0  0  0  0  0  0  0  0
   11.0750  -18.0243    0.0000 C   0  0  0  0  0  0  0  0  0  0  0  0
   10.3458  -20.9042    0.0000 H   0  0  0  0  0  0  0  0  0  0  0  0
   11.0625  -19.6708    0.0000 H   0  0  0  0  0  0  0  0  0  0  0  0
    9.2250  -21.2042    0.0000 C   0  0  0  0  0  0  0  0  0  0  0  0
   10.0500  -21.2042    0.0000 C   0  0  0  0  0  0  0  0  0  0  0  0
   10.3500  -18.4333    0.0000 C   0  0  0  0  0  0  0  0  0  0  0  0
   13.2030  -19.2864    0.0000 C   0  0  0  0  0  0  0  0  0  0  0  0
   13.1926  -20.1114    0.0000 C   0  0  0  0  0  0  0  0  0  0  0  0
   13.9018  -20.5329    0.0000 C   0  0  0  0  0  0  0  0  0  0  0  0
   12.4729  -20.5148    0.0000 O   0  0  0  0  0  0  0  0  0  0  0  0
   13.2167  -18.4500    0.0000 O   0  0  0  0  0  0  0  0  0  0  0  0
   12.9125  -17.3208    0.0000 C   0  0  0  0  0  0  0  0  0  0  0  0
   13.7375  -17.3133    0.0000 O   0  0  0  0  0  0  0  0  0  0  0  0
   11.7708  -18.4417    0.0000 C   0  0  0  0  0  0  0  0  0  0  0  0
   13.9815  -21.3520    0.0000 C   0  0  0  0  0  0  0  0  0  0  0  0
   14.7862  -21.5337    0.0000 C   0  0  0  0  0  0  0  0  0  0  0  0
   15.2077  -20.8245    0.0000 O   0  0  0  0  0  0  0  0  0  0  0  0
   14.6634  -20.2046    0.0000 C   0  0  0  0  0  0  0  0  0  0  0  0
   15.1122  -22.2916    0.0000 O   0  0  0  0  0  0  0  0  0  0  0  0
   14.6456  -19.3795    0.0000 O   0  0  0  0  0  0  0  0  0  0  0  0
   15.3509  -18.9516    0.0000 C   0  0  0  0  0  0  0  0  0  0  0  0
   15.3329  -18.1268    0.0000 O   0  0  0  0  0  0  0  0  0  0  0  0
   16.0742  -19.3484    0.0000 C   0  0  0  0  0  0  0  0  0  0  0  0
   16.7795  -18.9205    0.0000 C   0  0  0  0  0  0  0  0  0  0  0  0
   17.5028  -19.3173    0.0000 C   0  0  0  0  0  0  0  0  0  0  0  0
   17.5185  -20.1402    0.0000 C   0  0  0  0  0  0  0  0  0  0  0  0
   18.2409  -20.5370    0.0000 C   0  0  0  0  0  0  0  0  0  0  0  0
   18.9472  -20.1090    0.0000 C   0  0  0  0  0  0  0  0  0  0  0  0
   18.9265  -19.2800    0.0000 C   0  0  0  0  0  0  0  0  0  0  0  0
   18.2036  -18.8869    0.0000 C   0  0  0  0  0  0  0  0  0  0  0  0
  3  6  1  0  0  0  0
 20 21  1  0  0  0  0
  5  4  1  0  0  0  0
 21 22  1  0  0  0  0
  5  6  1  0  0  0  0
 21 23  1  0  0  0  0
 12 24  1  6  0  0  0
  1  2  1  0  0  0  0
 12 25  1  0  0  0  0
  1  4  1  0  0  0  0
 25 26  1  0  0  0  0
  9 14  1  0  0  0  0
 10 27  1  1  0  0  0
 22 28  2  0  0  0  0
 10 11  1  0  0  0  0
 11 12  1  0  0  0  0
 12 13  1  0  0  0  0
 13 14  1  0  0  0  0
 28 29  1  0  0  0  0
 29 30  1  0  0  0  0
 30 31  1  0  0  0  0
 31 22  1  0  0  0  0
  2  3  1  0  0  0  0
 29 32  2  0  0  0  0
  6 15  1  6  0  0  0
 31 33  1  0  0  0  0
  5  9  1  0  0  0  0
 33 34  1  0  0  0  0
  9 16  1  6  0  0  0
 34 35  2  0  0  0  0
  6  7  1  0  0  0  0
 34 36  1  0  0  0  0
  3 17  1  0  0  0  0
 36 37  2  0  0  0  0
  7  8  1  0  0  0  0
 37 38  1  0  0  0  0
  3 18  1  0  0  0  0
 38 39  2  0  0  0  0
  8 10  1  0  0  0  0
 39 40  1  0  0  0  0
  5 19  1  1  0  0  0
 40 41  2  0  0  0  0
  9 10  1  0  0  0  0
 41 42  1  0  0  0  0
 11 20  1  6  0  0  0
 42 43  2  0  0  0  0
 43 38  1  0  0  0  0
M  END
>  <Mol Weight>
566.7248

>  <Formula>
C34H46O7

>  <chembl_id>
CHEMBL502456

$$$$

  Mrv0541 06201412482D          

 42 46  0  0  0  0            999 V2000
   -4.2566  -13.2263    0.0000 C   0  0  0  0  0  0  0  0  0  0  0  0
   -4.2578  -14.0536    0.0000 C   0  0  0  0  0  0  0  0  0  0  0  0
   -3.5430  -14.4665    0.0000 C   0  0  0  0  0  0  0  0  0  0  0  0
   -3.5448  -12.8135    0.0000 C   0  0  0  0  0  0  0  0  0  0  0  0
   -4.9712  -12.8139    0.0000 O   0  0  0  0  0  0  0  0  0  0  0  0
   -3.5432  -15.2915    0.0000 O   0  0  0  0  0  0  0  0  0  0  0  0
   -2.8294  -13.2226    0.0000 C   0  0  0  0  0  0  0  0  0  0  0  0
   -2.8306  -14.0557    0.0000 C   0  0  0  0  0  0  0  0  0  0  0  0
   -2.1137  -14.4710    0.0000 C   0  0  0  0  0  0  0  0  0  0  0  0
   -1.3910  -14.0578    0.0000 C   0  0  0  0  0  0  0  0  0  0  0  0
   -1.3898  -13.2247    0.0000 C   0  0  0  0  0  0  0  0  0  0  0  0
   -2.1113  -12.8048    0.0000 O   0  0  0  0  0  0  0  0  0  0  0  0
   -2.1160  -15.2960    0.0000 O   0  0  0  0  0  0  0  0  0  0  0  0
   -0.6744  -12.8139    0.0000 C   0  0  0  0  0  0  0  0  0  0  0  0
    0.0377  -13.2325    0.0000 C   0  0  0  0  0  0  0  0  0  0  0  0
    0.7551  -11.9966    0.0000 C   0  0  0  0  0  0  0  0  0  0  0  0
    0.0366  -11.5825    0.0000 C   0  0  0  0  0  0  0  0  0  0  0  0
   -0.6754  -11.9949    0.0000 C   0  0  0  0  0  0  0  0  0  0  0  0
    1.4701  -11.5849    0.0000 O   0  0  0  0  0  0  0  0  0  0  0  0
    2.1841  -11.9982    0.0000 C   0  0  2  0  0  0  0  0  0  0  0  0
    2.1792  -12.8230    0.0000 C   0  0  2  0  0  0  0  0  0  0  0  0
    2.8891  -13.2362    0.0000 C   0  0  1  0  0  0  0  0  0  0  0  0
    3.6065  -12.8280    0.0000 C   0  0  2  0  0  0  0  0  0  0  0  0
    3.6094  -12.0020    0.0000 C   0  0  1  0  0  0  0  0  0  0  0  0
    2.8949  -11.5843    0.0000 O   0  0  0  0  0  0  0  0  0  0  0  0
    4.3257  -11.5928    0.0000 C   0  0  0  0  0  0  0  0  0  0  0  0
    2.8851  -14.0612    0.0000 O   0  0  0  0  0  0  0  0  0  0  0  0
    4.3295  -10.7678    0.0000 O   0  0  0  0  0  0  0  0  0  0  0  0
    4.3189  -13.2440    0.0000 O   0  0  0  0  0  0  0  0  0  0  0  0
    1.4628  -13.2321    0.0000 O   0  0  0  0  0  0  0  0  0  0  0  0
    0.7503  -12.8163    0.0000 C   0  0  0  0  0  0  0  0  0  0  0  0
    5.0458  -10.3585    0.0000 C   0  0  0  0  0  0  0  0  0  0  0  0
    5.7612  -10.7693    0.0000 O   0  0  0  0  0  0  0  0  0  0  0  0
    5.0438   -9.5335    0.0000 C   0  0  0  0  0  0  0  0  0  0  0  0
    5.7573   -9.1193    0.0000 C   0  0  0  0  0  0  0  0  0  0  0  0
    5.7554   -8.2943    0.0000 C   0  0  0  0  0  0  0  0  0  0  0  0
    6.4722   -7.8838    0.0000 C   0  0  0  0  0  0  0  0  0  0  0  0
    6.4706   -7.0595    0.0000 C   0  0  0  0  0  0  0  0  0  0  0  0
    5.7546   -6.6479    0.0000 C   0  0  0  0  0  0  0  0  0  0  0  0
    5.0388   -7.0665    0.0000 C   0  0  0  0  0  0  0  0  0  0  0  0
    5.0439   -7.8894    0.0000 C   0  0  0  0  0  0  0  0  0  0  0  0
    5.7516   -5.8229    0.0000 O   0  0  0  0  0  0  0  0  0  0  0  0
 20 19  1  1  0  0  0
 20 21  1  0  0  0  0
  1  5  1  0  0  0  0
  7 12  1  0  0  0  0
  8  9  1  0  0  0  0
  9 10  1  0  0  0  0
 10 11  2  0  0  0  0
 20 25  1  0  0  0  0
 21 22  1  0  0  0  0
 22 23  1  0  0  0  0
 23 24  1  0  0  0  0
 24 25  1  0  0  0  0
 11 12  1  0  0  0  0
 24 26  1  1  0  0  0
  2  3  1  0  0  0  0
 22 27  1  1  0  0  0
  9 13  2  0  0  0  0
 26 28  1  0  0  0  0
  3  6  1  0  0  0  0
 23 29  1  6  0  0  0
 11 14  1  0  0  0  0
 21 30  1  6  0  0  0
  7  8  1  0  0  0  0
 14 15  2  0  0  0  0
 28 32  1  0  0  0  0
 15 31  1  0  0  0  0
 32 33  2  0  0  0  0
  3  8  2  0  0  0  0
 32 34  1  0  0  0  0
 31 16  2  0  0  0  0
 34 35  2  0  0  0  0
  1  2  2  0  0  0  0
 35 36  1  0  0  0  0
 16 17  1  0  0  0  0
 36 37  2  0  0  0  0
  7  4  2  0  0  0  0
 37 38  1  0  0  0  0
 17 18  2  0  0  0  0
 38 39  2  0  0  0  0
 18 14  1  0  0  0  0
 39 40  1  0  0  0  0
  4  1  1  0  0  0  0
 40 41  2  0  0  0  0
 41 36  1  0  0  0  0
 16 19  1  0  0  0  0
 39 42  1  0  0  0  0
M  END
>  <Mol Weight>
578.5202

>  <Formula>
C30H26O12

>  <chembl_id>
CHEMBL503232

$$$$

  Mrv0541 06201412482D          

 41 45  0  0  0  0            999 V2000
    0.7236   -8.5000    0.0000 C   0  0  0  0  0  0  0  0  0  0  0  0
    0.7224   -9.3273    0.0000 C   0  0  0  0  0  0  0  0  0  0  0  0
    1.4373   -9.7402    0.0000 C   0  0  0  0  0  0  0  0  0  0  0  0
    1.4355   -8.0872    0.0000 C   0  0  0  0  0  0  0  0  0  0  0  0
    2.1508   -8.4963    0.0000 C   0  0  0  0  0  0  0  0  0  0  0  0
    2.1516   -9.3232    0.0000 C   0  0  0  0  0  0  0  0  0  0  0  0
    2.8669   -9.7341    0.0000 O   0  0  0  0  0  0  0  0  0  0  0  0
    2.8613   -8.0822    0.0000 C   0  0  0  0  0  0  0  0  0  0  0  0
    3.5772   -8.4894    0.0000 C   0  0  0  0  0  0  0  0  0  0  0  0
    3.5808   -9.3190    0.0000 C   0  0  0  0  0  0  0  0  0  0  0  0
    4.2999   -9.7289    0.0000 C   0  0  0  0  0  0  0  0  0  0  0  0
    5.0159   -9.3103    0.0000 C   0  0  0  0  0  0  0  0  0  0  0  0
    5.0082   -8.4775    0.0000 C   0  0  0  0  0  0  0  0  0  0  0  0
    4.2886   -8.0714    0.0000 C   0  0  0  0  0  0  0  0  0  0  0  0
    2.8564   -7.2623    0.0000 C   0  0  0  0  0  0  0  0  0  0  0  0
    3.5703   -6.8466    0.0000 C   0  0  0  0  0  0  0  0  0  0  0  0
    3.5663   -6.0224    0.0000 C   0  0  0  0  0  0  0  0  0  0  0  0
    2.8491   -5.6129    0.0000 C   0  0  0  0  0  0  0  0  0  0  0  0
    2.1344   -6.0336    0.0000 C   0  0  0  0  0  0  0  0  0  0  0  0
    2.1420   -6.8564    0.0000 C   0  0  0  0  0  0  0  0  0  0  0  0
    2.8436   -4.7879    0.0000 N   0  0  0  0  0  0  0  0  0  0  0  0
    3.5553   -4.3707    0.0000 C   0  0  0  0  0  0  0  0  0  0  0  0
    4.2725   -4.7784    0.0000 N   0  0  0  0  0  0  0  0  0  0  0  0
    4.9842   -4.3612    0.0000 C   0  0  0  0  0  0  0  0  0  0  0  0
    5.7014   -4.7689    0.0000 C   0  0  0  0  0  0  0  0  0  0  0  0
    6.4131   -4.3517    0.0000 C   0  0  0  0  0  0  0  0  0  0  0  0
    7.1281   -4.7621    0.0000 C   0  0  0  0  0  0  0  0  0  0  0  0
    7.8393   -4.3455    0.0000 C   0  0  0  0  0  0  0  0  0  0  0  0
    7.8343   -3.5197    0.0000 C   0  0  0  0  0  0  0  0  0  0  0  0
    7.1121   -3.1121    0.0000 C   0  0  0  0  0  0  0  0  0  0  0  0
    6.4038   -3.5310    0.0000 C   0  0  0  0  0  0  0  0  0  0  0  0
    8.5455   -3.1015    0.0000 S   0  0  0  0  0  0  0  0  0  0  0  0
    9.2542   -2.6833    0.0000 N   0  0  0  0  0  0  0  0  0  0  0  0
    8.9642   -3.8123    0.0000 O   0  0  0  0  0  0  0  0  0  0  0  0
    8.1286   -2.3896    0.0000 O   0  0  0  0  0  0  0  0  0  0  0  0
    5.7334   -9.7175    0.0000 O   0  0  0  0  0  0  0  0  0  0  0  0
    0.0076   -9.7393    0.0000 O   0  0  0  0  0  0  0  0  0  0  0  0
    4.3917   -6.8458    0.0000 C   0  0  0  0  0  0  0  0  0  0  0  0
    4.8044   -7.5546    0.0000 O   0  0  0  0  0  0  0  0  0  0  0  0
    4.8030   -6.1319    0.0000 O   0  0  0  0  0  0  0  0  0  0  0  0
    3.5498   -3.5457    0.0000 O   0  0  0  0  0  0  0  0  0  0  0  0
 19 20  2  0  0  0  0
 20 15  1  0  0  0  0
  8 15  1  0  0  0  0
  4  1  1  0  0  0  0
 18 21  1  0  0  0  0
  9 10  1  0  0  0  0
 21 22  1  0  0  0  0
 22 41  2  0  0  0  0
 10 11  2  0  0  0  0
 22 23  1  0  0  0  0
  2  3  1  0  0  0  0
 23 24  1  0  0  0  0
 11 12  1  0  0  0  0
 24 25  1  0  0  0  0
  5  6  1  0  0  0  0
 25 26  1  0  0  0  0
 12 13  1  0  0  0  0
 26 27  2  0  0  0  0
  3  6  2  0  0  0  0
 27 28  1  0  0  0  0
 13 14  2  0  0  0  0
 28 29  2  0  0  0  0
 14  9  1  0  0  0  0
 29 30  1  0  0  0  0
  6  7  1  0  0  0  0
 30 31  2  0  0  0  0
 31 26  1  0  0  0  0
  7 10  1  0  0  0  0
 29 32  1  0  0  0  0
 15 16  2  0  0  0  0
 32 33  1  0  0  0  0
  1  2  2  0  0  0  0
 32 34  2  0  0  0  0
 16 17  1  0  0  0  0
 32 35  2  0  0  0  0
  9  8  2  0  0  0  0
 12 36  2  0  0  0  0
 17 18  2  0  0  0  0
  2 37  1  0  0  0  0
  8  5  1  0  0  0  0
 16 38  1  0  0  0  0
 18 19  1  0  0  0  0
  5  4  2  0  0  0  0
 38 39  1  0  0  0  0
 38 40  2  0  0  0  0
M  END
>  <Mol Weight>
573.573

>  <Formula>
C29H23N3O8S

>  <chembl_id>
CHEMBL501130

$$$$

  Mrv0541 06201412482D          

 43 46  0  0  0  0            999 V2000
    9.6476   -3.1417    0.0000 C   0  0  0  0  0  0  0  0  0  0  0  0
    8.9373   -2.7386    0.0000 C   0  0  0  0  0  0  0  0  0  0  0  0
    8.2214   -3.1504    0.0000 C   0  0  0  0  0  0  0  0  0  0  0  0
    8.2284   -3.9751    0.0000 C   0  0  0  0  0  0  0  0  0  0  0  0
    8.9433   -4.3859    0.0000 C   0  0  0  0  0  0  0  0  0  0  0  0
    9.6549   -3.9669    0.0000 C   0  0  0  0  0  0  0  0  0  0  0  0
    8.9343   -1.9136    0.0000 O   0  0  0  0  0  0  0  0  0  0  0  0
    8.2190   -1.5032    0.0000 C   0  0  0  0  0  0  0  0  0  0  0  0
    8.9505   -5.2109    0.0000 C   0  0  0  0  0  0  0  0  0  0  0  0
    9.6658   -5.6171    0.0000 C   0  0  0  0  0  0  0  0  0  0  0  0
   10.3781   -5.2025    0.0000 C   0  0  0  0  0  0  0  0  0  0  0  0
   11.0741   -5.6513    0.0000 O   0  0  0  0  0  0  0  0  0  0  0  0
   10.3750   -4.3775    0.0000 O   0  0  0  0  0  0  0  0  0  0  0  0
   11.3465   -6.4313    0.0000 C   0  0  2  0  0  0  0  0  0  0  0  0
   10.8692   -7.1080    0.0000 C   0  0  0  0  0  0  0  0  0  0  0  0
   11.3662   -7.7705    0.0000 C   0  0  0  0  0  0  0  0  0  0  0  0
   12.1312   -6.6732    0.0000 C   0  0  1  0  0  0  0  0  0  0  0  0
   12.1483   -7.4990    0.0000 C   0  0  2  0  0  0  0  0  0  0  0  0
   12.8669   -7.8987    0.0000 C   0  0  1  0  0  0  0  0  0  0  0  0
   13.5746   -7.4748    0.0000 O   0  0  0  0  0  0  0  0  0  0  0  0
   13.5652   -6.6522    0.0000 C   0  0  0  0  0  0  0  0  0  0  0  0
   12.8426   -6.2483    0.0000 C   0  0  0  0  0  0  0  0  0  0  0  0
   11.1254   -8.5565    0.0000 C   0  0  0  0  0  0  0  0  0  0  0  0
   12.8864   -8.7276    0.0000 O   0  0  0  0  0  0  0  0  0  0  0  0
   12.8272   -5.4236    0.0000 C   0  0  0  0  0  0  0  0  0  0  0  0
   13.5344   -4.9955    0.0000 O   0  0  0  0  0  0  0  0  0  0  0  0
   12.1045   -5.0222    0.0000 O   0  0  0  0  0  0  0  0  0  0  0  0
   14.2571   -5.3969    0.0000 C   0  0  0  0  0  0  0  0  0  0  0  0
   12.0345   -5.8514    0.0000 H   0  0  0  0  0  0  0  0  0  0  0  0
   12.0773   -8.3231    0.0000 H   0  0  0  0  0  0  0  0  0  0  0  0
   13.6098   -9.1233    0.0000 C   0  0  2  0  0  0  0  0  0  0  0  0
   13.6256   -9.9465    0.0000 O   0  0  0  0  0  0  0  0  0  0  0  0
   14.3428  -10.3422    0.0000 C   0  0  1  0  0  0  0  0  0  0  0  0
   15.0507   -9.9205    0.0000 C   0  0  2  0  0  0  0  0  0  0  0  0
   15.0344   -9.0963    0.0000 C   0  0  1  0  0  0  0  0  0  0  0  0
   14.3101   -8.6939    0.0000 C   0  0  1  0  0  0  0  0  0  0  0  0
   14.3574  -11.1690    0.0000 C   0  0  0  0  0  0  0  0  0  0  0  0
   12.8955   -9.5338    0.0000 H   0  0  0  0  0  0  0  0  0  0  0  0
   10.3172   -8.7473    0.0000 O   0  0  0  0  0  0  0  0  0  0  0  0
   14.2956   -7.8713    0.0000 O   0  0  0  0  0  0  0  0  0  0  0  0
   15.7407   -8.6689    0.0000 O   0  0  0  0  0  0  0  0  0  0  0  0
   15.7719  -10.3203    0.0000 O   0  0  0  0  0  0  0  0  0  0  0  0
   13.6508  -11.5919    0.0000 O   0  0  0  0  0  0  0  0  0  0  0  0
 10 11  1  0  0  0  0
 11 12  1  0  0  0  0
 11 13  2  0  0  0  0
 14 12  1  1  0  0  0
 14 15  1  0  0  0  0
 15 16  2  0  0  0  0
 16 18  1  0  0  0  0
 17 14  1  0  0  0  0
 17 18  1  0  0  0  0
 17 22  1  0  0  0  0
 18 19  1  0  0  0  0
 19 20  1  0  0  0  0
 20 21  1  0  0  0  0
 21 22  2  0  0  0  0
 16 23  1  0  0  0  0
 19 24  1  1  0  0  0
  1  2  2  0  0  0  0
 22 25  1  0  0  0  0
  2  3  1  0  0  0  0
 25 26  1  0  0  0  0
  3  4  2  0  0  0  0
 25 27  2  0  0  0  0
  4  5  1  0  0  0  0
 26 28  1  0  0  0  0
  5  6  2  0  0  0  0
 17 29  1  1  0  0  0
  6  1  1  0  0  0  0
 18 30  1  1  0  0  0
 31 24  1  0  0  0  0
 31 32  1  0  0  0  0
 31 36  1  0  0  0  0
 32 33  1  0  0  0  0
 33 34  1  0  0  0  0
 34 35  1  0  0  0  0
 35 36  1  0  0  0  0
 33 37  1  1  0  0  0
 31 38  1  6  0  0  0
  7  8  1  0  0  0  0
  2  7  1  0  0  0  0
  5  9  1  0  0  0  0
  9 10  2  0  0  0  0
 23 39  1  0  0  0  0
 35 41  1  1  0  0  0
 34 42  1  6  0  0  0
 36 40  1  6  0  0  0
 37 43  1  0  0  0  0
M  END
>  <Mol Weight>
564.5352

>  <Formula>
C27H32O13

>  <chembl_id>
CHEMBL501132

$$$$

  Mrv0541 06201412482D          

 42 42  0  0  0  0            999 V2000
   17.6588  -23.5496    0.0000 C   0  0  0  0  0  0  0  0  0  0  0  0
   18.3578  -23.9911    0.0000 C   0  0  0  0  0  0  0  0  0  0  0  0
   18.9937  -23.4626    0.0000 O   0  0  0  0  0  0  0  0  0  0  0  0
   18.6876  -22.6945    0.0000 C   0  0  2  0  0  0  0  0  0  0  0  0
   17.8626  -22.7484    0.0000 C   0  0  0  0  0  0  0  0  0  0  0  0
   18.4116  -24.8162    0.0000 O   0  0  0  0  0  0  0  0  0  0  0  0
   16.9457  -23.9601    0.0000 C   0  0  0  0  0  0  0  0  0  0  0  0
   16.2337  -23.5467    0.0000 C   0  0  0  0  0  0  0  0  0  0  0  0
   15.5218  -23.9601    0.0000 C   0  0  0  0  0  0  0  0  0  0  0  0
   14.8097  -23.5467    0.0000 C   0  0  0  0  0  0  0  0  0  0  0  0
   14.0977  -23.9601    0.0000 C   0  0  0  0  0  0  0  0  0  0  0  0
   13.3857  -23.5467    0.0000 C   0  0  0  0  0  0  0  0  0  0  0  0
   12.6737  -23.9601    0.0000 C   0  0  0  0  0  0  0  0  0  0  0  0
   11.9617  -23.5467    0.0000 C   0  0  0  0  0  0  0  0  0  0  0  0
   11.2497  -23.9601    0.0000 C   0  0  0  0  0  0  0  0  0  0  0  0
   10.5376  -23.5467    0.0000 C   0  0  0  0  0  0  0  0  0  0  0  0
    9.8257  -23.9601    0.0000 C   0  0  0  0  0  0  0  0  0  0  0  0
    9.1137  -23.5467    0.0000 C   0  0  0  0  0  0  0  0  0  0  0  0
    8.4016  -23.9601    0.0000 C   0  0  0  0  0  0  0  0  0  0  0  0
    7.6897  -23.5467    0.0000 C   0  0  0  0  0  0  0  0  0  0  0  0
    6.9777  -23.9601    0.0000 C   0  0  2  0  0  0  0  0  0  0  0  0
    6.2656  -23.5467    0.0000 C   0  0  1  0  0  0  0  0  0  0  0  0
    5.5536  -23.9601    0.0000 C   0  0  0  0  0  0  0  0  0  0  0  0
    4.8417  -23.5467    0.0000 C   0  0  0  0  0  0  0  0  0  0  0  0
   19.1290  -21.9953    0.0000 C   0  0  0  0  0  0  0  0  0  0  0  0
    6.9777  -24.7869    0.0000 O   0  0  0  0  0  0  0  0  0  0  0  0
    6.2656  -22.7198    0.0000 O   0  0  0  0  0  0  0  0  0  0  0  0
   11.9617  -22.7198    0.0000 O   0  0  0  0  0  0  0  0  0  0  0  0
    4.1251  -23.9556    0.0000 C   0  0  0  0  0  0  0  0  0  0  0  0
    3.2982  -23.9509    0.0000 C   0  0  0  0  0  0  0  0  0  0  0  0
    2.7102  -23.3630    0.0000 C   0  0  0  0  0  0  0  0  0  0  0  0
    1.9936  -23.7718    0.0000 C   0  0  0  0  0  0  0  0  0  0  0  0
    1.2797  -23.3547    0.0000 C   0  0  0  0  0  0  0  0  0  0  0  0
    0.5615  -23.7644    0.0000 C   0  0  0  0  0  0  0  0  0  0  0  0
   -0.1525  -23.3473    0.0000 C   0  0  0  0  0  0  0  0  0  0  0  0
   -0.8706  -23.7570    0.0000 C   0  0  0  0  0  0  0  0  0  0  0  0
   -1.5846  -23.3400    0.0000 C   0  0  0  0  0  0  0  0  0  0  0  0
   -2.3027  -23.7497    0.0000 C   0  0  0  0  0  0  0  0  0  0  0  0
   -3.0167  -23.3326    0.0000 C   0  0  0  0  0  0  0  0  0  0  0  0
   -3.7349  -23.7424    0.0000 C   0  0  0  0  0  0  0  0  0  0  0  0
   -4.4488  -23.3252    0.0000 C   0  0  0  0  0  0  0  0  0  0  0  0
   -5.1670  -23.7350    0.0000 C   0  0  0  0  0  0  0  0  0  0  0  0
 20 21  1  0  0  0  0
  5  1  2  0  0  0  0
 21 22  1  0  0  0  0
 10 11  1  0  0  0  0
 22 23  1  0  0  0  0
  1  2  1  0  0  0  0
 23 24  1  0  0  0  0
 11 12  1  0  0  0  0
  4 25  1  6  0  0  0
  2  6  2  0  0  0  0
 21 26  1  1  0  0  0
 12 13  1  0  0  0  0
 22 27  1  1  0  0  0
 14 28  2  0  0  0  0
 13 14  1  0  0  0  0
 24 29  1  0  0  0  0
  1  7  1  0  0  0  0
 29 30  2  0  0  0  0
 14 15  1  0  0  0  0
 30 31  1  0  0  0  0
  2  3  1  0  0  0  0
 31 32  1  0  0  0  0
 15 16  1  0  0  0  0
 32 33  1  0  0  0  0
  7  8  1  0  0  0  0
 33 34  1  0  0  0  0
 16 17  1  0  0  0  0
 34 35  1  0  0  0  0
  3  4  1  0  0  0  0
 35 36  1  0  0  0  0
 17 18  1  0  0  0  0
 36 37  1  0  0  0  0
  8  9  1  0  0  0  0
 37 38  1  0  0  0  0
 18 19  1  0  0  0  0
 38 39  1  0  0  0  0
  4  5  1  0  0  0  0
 39 40  1  0  0  0  0
 19 20  1  0  0  0  0
 40 41  1  0  0  0  0
  9 10  1  0  0  0  0
 41 42  1  0  0  0  0
M  END
>  <Mol Weight>
590.9169

>  <Formula>
C37H66O5

>  <chembl_id>
CHEMBL501508

$$$$

  Mrv0541 06201412482D          

 38 43  0  0  0  0            999 V2000
   18.9155   -8.8421    0.0000 C   0  0  0  0  0  0  0  0  0  0  0  0
   15.9718  -10.6632    0.0000 C   0  0  0  0  0  0  0  0  0  0  0  0
   16.7969  -10.6632    0.0000 S   0  0  0  0  0  0  0  0  0  0  0  0
   17.0520   -9.8784    0.0000 C   0  0  0  0  0  0  0  0  0  0  0  0
   16.3844   -9.3933    0.0000 C   0  0  0  0  0  0  0  0  0  0  0  0
   15.7168   -9.8784    0.0000 C   0  0  0  0  0  0  0  0  0  0  0  0
   17.8368   -9.6235    0.0000 C   0  0  0  0  0  0  0  0  0  0  0  0
   18.5029  -10.1120    0.0000 N   0  0  0  0  0  0  0  0  0  0  0  0
   19.1705   -9.6269    0.0000 N   0  0  0  0  0  0  0  0  0  0  0  0
   18.0904   -8.8422    0.0000 C   0  0  0  0  0  0  0  0  0  0  0  0
   19.4004   -8.1745    0.0000 C   0  0  0  0  0  0  0  0  0  0  0  0
   20.2214   -8.2604    0.0000 N   0  0  0  0  0  0  0  0  0  0  0  0
   19.0649   -7.4207    0.0000 O   0  0  0  0  0  0  0  0  0  0  0  0
   18.5010  -10.9371    0.0000 C   0  0  0  0  0  0  0  0  0  0  0  0
   17.7865  -11.3457    0.0000 C   0  0  0  0  0  0  0  0  0  0  0  0
   17.7843  -12.1701    0.0000 C   0  0  0  0  0  0  0  0  0  0  0  0
   18.4985  -12.5852    0.0000 C   0  0  0  0  0  0  0  0  0  0  0  0
   19.2165  -12.1698    0.0000 C   0  0  0  0  0  0  0  0  0  0  0  0
   19.2152  -11.3467    0.0000 C   0  0  0  0  0  0  0  0  0  0  0  0
   19.9289  -10.9325    0.0000 Cl  0  0  0  0  0  0  0  0  0  0  0  0
   18.4977  -13.4104    0.0000 Cl  0  0  0  0  0  0  0  0  0  0  0  0
   17.6052   -8.1747    0.0000 C   0  0  0  0  0  0  0  0  0  0  0  0
   15.4868  -11.3307    0.0000 C   0  0  0  0  0  0  0  0  0  0  0  0
   15.0036  -11.9957    0.0000 C   0  0  0  0  0  0  0  0  0  0  0  0
   14.5211  -12.6636    0.0000 C   0  0  0  0  0  0  0  0  0  0  0  0
   20.7062   -7.5925    0.0000 N   0  0  0  0  0  0  0  0  0  0  0  0
   13.7006  -12.5775    0.0000 C   0  0  0  0  0  0  0  0  0  0  0  0
   13.2186  -13.2415    0.0000 C   0  0  0  0  0  0  0  0  0  0  0  0
   13.5520  -13.9953    0.0000 C   0  0  0  0  0  0  0  0  0  0  0  0
   14.3723  -14.0814    0.0000 C   0  0  0  0  0  0  0  0  0  0  0  0
   14.8594  -13.4135    0.0000 C   0  0  0  0  0  0  0  0  0  0  0  0
   21.5280   -7.5912    0.0000 C   0  0  0  0  0  0  0  0  0  0  0  0
   20.4475   -6.8071    0.0000 C   0  0  0  0  0  0  0  0  0  0  0  0
   21.1147   -6.3217    0.0000 C   0  0  0  0  0  0  0  0  0  0  0  0
   21.7825   -6.8024    0.0000 C   0  0  0  0  0  0  0  0  0  0  0  0
   22.4460   -6.3159    0.0000 C   0  0  0  0  0  0  0  0  0  0  0  0
   22.1885   -5.5344    0.0000 C   0  0  0  0  0  0  0  0  0  0  0  0
   21.3657   -5.5381    0.0000 C   0  0  0  0  0  0  0  0  0  0  0  0
  8  9  1  0  0  0  0
 18 19  2  0  0  0  0
 19 14  1  0  0  0  0
  9  1  2  0  0  0  0
 19 20  1  0  0  0  0
  1 10  1  0  0  0  0
 17 21  1  0  0  0  0
 10  7  2  0  0  0  0
 10 22  1  0  0  0  0
  5  6  1  0  0  0  0
  2 23  1  0  0  0  0
  1 11  1  0  0  0  0
 23 24  3  0  0  0  0
  6  2  2  0  0  0  0
 24 25  1  0  0  0  0
 11 12  1  0  0  0  0
 12 26  1  0  0  0  0
 25 27  1  0  0  0  0
  2  3  1  0  0  0  0
 11 13  2  0  0  0  0
  4  7  1  0  0  0  0
  8 14  1  0  0  0  0
  7  8  1  0  0  0  0
 25 31  1  0  0  0  0
 27 28  1  0  0  0  0
 28 29  1  0  0  0  0
 29 30  1  0  0  0  0
 30 31  1  0  0  0  0
 26 32  1  0  0  0  0
 14 15  2  0  0  0  0
 32 35  1  0  0  0  0
 34 33  1  0  0  0  0
 33 26  1  0  0  0  0
 34 35  1  0  0  0  0
 15 16  1  0  0  0  0
  3  4  1  0  0  0  0
 16 17  2  0  0  0  0
  4  5  2  0  0  0  0
 17 18  1  0  0  0  0
 35 36  1  0  0  0  0
 36 37  1  0  0  0  0
 37 38  1  0  0  0  0
 38 34  1  0  0  0  0
M  END
>  <Mol Weight>
567.572

>  <Formula>
C30H32Cl2N4OS

>  <chembl_id>
CHEMBL524158

$$$$

  Mrv0541 06201412482D          

 41 45  0  0  0  0            999 V2000
    6.1694  -24.8416    0.0000 C   0  0  0  0  0  0  0  0  0  0  0  0
    6.1682  -25.6690    0.0000 C   0  0  0  0  0  0  0  0  0  0  0  0
    6.8831  -26.0819    0.0000 C   0  0  0  0  0  0  0  0  0  0  0  0
    7.5995  -25.6685    0.0000 C   0  0  0  0  0  0  0  0  0  0  0  0
    7.5966  -24.8380    0.0000 C   0  0  0  0  0  0  0  0  0  0  0  0
    6.8813  -24.4289    0.0000 C   0  0  0  0  0  0  0  0  0  0  0  0
    8.3146  -26.0799    0.0000 N   0  0  0  0  0  0  0  0  0  0  0  0
    9.0284  -25.6663    0.0000 C   0  0  0  0  0  0  0  0  0  0  0  0
    9.9182  -24.6675    0.0000 N   0  0  0  0  0  0  0  0  0  0  0  0
    9.1116  -24.8404    0.0000 N   0  0  0  0  0  0  0  0  0  0  0  0
   10.3319  -25.3813    0.0000 C   0  0  0  0  0  0  0  0  0  0  0  0
    9.7816  -25.9943    0.0000 C   0  0  0  0  0  0  0  0  0  0  0  0
   10.0377  -26.7752    0.0000 C   0  0  0  0  0  0  0  0  0  0  0  0
   10.8436  -26.9443    0.0000 N   0  0  0  0  0  0  0  0  0  0  0  0
   11.3930  -26.3264    0.0000 C   0  0  0  0  0  0  0  0  0  0  0  0
   11.1340  -25.5479    0.0000 N   0  0  0  0  0  0  0  0  0  0  0  0
   12.2011  -26.4926    0.0000 N   0  0  0  0  0  0  0  0  0  0  0  0
   12.7490  -25.8758    0.0000 C   0  0  0  0  0  0  0  0  0  0  0  0
   13.5570  -26.0438    0.0000 C   0  0  0  0  0  0  0  0  0  0  0  0
   14.1047  -25.4279    0.0000 C   0  0  0  0  0  0  0  0  0  0  0  0
   13.8447  -24.6440    0.0000 C   0  0  0  0  0  0  0  0  0  0  0  0
   13.0319  -24.4795    0.0000 C   0  0  0  0  0  0  0  0  0  0  0  0
   12.4878  -25.0968    0.0000 C   0  0  0  0  0  0  0  0  0  0  0  0
   10.2526  -23.9132    0.0000 C   0  0  0  0  0  0  0  0  0  0  0  0
    9.7665  -23.2466    0.0000 C   0  0  0  0  0  0  0  0  0  0  0  0
   10.1008  -22.4924    0.0000 C   0  0  0  0  0  0  0  0  0  0  0  0
   10.5083  -21.7750    0.0000 C   0  0  0  0  0  0  0  0  0  0  0  0
    9.3641  -22.1210    0.0000 C   0  0  0  0  0  0  0  0  0  0  0  0
   10.8375  -22.8638    0.0000 O   0  0  0  0  0  0  0  0  0  0  0  0
   11.5275  -22.4115    0.0000 C   0  0  0  0  0  0  0  0  0  0  0  0
    8.3096  -24.4228    0.0000 Cl  0  0  0  0  0  0  0  0  0  0  0  0
    6.8829  -26.9069    0.0000 Cl  0  0  0  0  0  0  0  0  0  0  0  0
   14.3919  -24.0265    0.0000 O   0  0  0  0  0  0  0  0  0  0  0  0
   15.2002  -24.1916    0.0000 C   0  0  0  0  0  0  0  0  0  0  0  0
   15.7473  -23.5741    0.0000 C   0  0  0  0  0  0  0  0  0  0  0  0
   16.5556  -23.7392    0.0000 N   0  0  0  0  0  0  0  0  0  0  0  0
   16.8982  -24.4879    0.0000 C   0  0  0  0  0  0  0  0  0  0  0  0
   17.7180  -24.3951    0.0000 C   0  0  0  0  0  0  0  0  0  0  0  0
   17.8831  -23.5868    0.0000 C   0  0  0  0  0  0  0  0  0  0  0  0
   17.1653  -23.1801    0.0000 C   0  0  0  0  0  0  0  0  0  0  0  0
   14.9127  -25.5944    0.0000 F   0  0  0  0  0  0  0  0  0  0  0  0
  4  5  1  0  0  0  0
 19 20  1  0  0  0  0
 11  9  1  0  0  0  0
 20 21  2  0  0  0  0
  9 10  1  0  0  0  0
 21 22  1  0  0  0  0
 10  8  2  0  0  0  0
 22 23  2  0  0  0  0
 23 18  1  0  0  0  0
  2  3  1  0  0  0  0
  9 24  1  0  0  0  0
  5  6  2  0  0  0  0
 24 25  1  0  0  0  0
 11 12  2  0  0  0  0
 25 26  1  0  0  0  0
  6  1  1  0  0  0  0
 26 27  1  0  0  0  0
 12 13  1  0  0  0  0
 26 28  1  0  0  0  0
  1  2  2  0  0  0  0
 26 29  1  0  0  0  0
 13 14  2  0  0  0  0
 29 30  1  0  0  0  0
  4  7  1  0  0  0  0
  5 31  1  0  0  0  0
 14 15  1  0  0  0  0
  3 32  1  0  0  0  0
  3  4  2  0  0  0  0
 21 33  1  0  0  0  0
 15 16  2  0  0  0  0
 33 34  1  0  0  0  0
 16 11  1  0  0  0  0
 34 35  1  0  0  0  0
  7  8  1  0  0  0  0
 35 36  1  0  0  0  0
 36 37  1  0  0  0  0
 15 17  1  0  0  0  0
  8 12  1  0  0  0  0
 17 18  1  0  0  0  0
 37 38  1  0  0  0  0
 38 39  1  0  0  0  0
 39 40  1  0  0  0  0
 40 36  1  0  0  0  0
 18 19  2  0  0  0  0
 20 41  1  0  0  0  0
M  END
>  <Mol Weight>
602.53

>  <Formula>
C29H34Cl2FN7O2

>  <chembl_id>
CHEMBL504331

$$$$

  Mrv0541 06201412482D          

 42 44  0  0  0  0            999 V2000
   -3.5335   -1.5033    0.0000 C   0  0  0  0  0  0  0  0  0  0  0  0
   -3.5335   -2.3327    0.0000 C   0  0  1  0  0  0  0  0  0  0  0  0
   -2.8191   -2.7452    0.0000 C   0  0  2  0  0  0  0  0  0  0  0  0
   -2.8191   -1.0862    0.0000 C   0  0  0  0  0  0  0  0  0  0  0  0
   -2.1001   -1.5033    0.0000 C   0  0  1  0  0  0  0  0  0  0  0  0
   -2.0990   -2.3327    0.0000 C   0  0  1  0  0  0  0  0  0  0  0  0
   -1.3840   -2.7443    0.0000 C   0  0  0  0  0  0  0  0  0  0  0  0
   -0.6656   -2.3310    0.0000 C   0  0  0  0  0  0  0  0  0  0  0  0
   -1.3862   -1.0853    0.0000 C   0  0  1  0  0  0  0  0  0  0  0  0
   -0.6658   -1.5040    0.0000 C   0  0  1  0  0  0  0  0  0  0  0  0
   -0.0448   -0.9484    0.0000 C   0  0  0  0  0  0  0  0  0  0  0  0
   -0.3815   -0.1860    0.0000 C   0  0  0  0  0  0  0  0  0  0  0  0
   -1.2105   -0.2707    0.0000 C   0  0  0  0  0  0  0  0  0  0  0  0
   -4.2479   -2.7452    0.0000 O   0  0  0  0  0  0  0  0  0  0  0  0
   -4.9623   -2.3327    0.0000 C   0  0  0  0  0  0  0  0  0  0  0  0
   -5.6768   -2.7452    0.0000 C   0  0  0  0  0  0  0  0  0  0  0  0
   -4.9623   -1.5078    0.0000 O   0  0  0  0  0  0  0  0  0  0  0  0
   -2.8277   -3.5702    0.0000 C   0  0  0  0  0  0  0  0  0  0  0  0
   -2.1082   -0.6783    0.0000 C   0  0  0  0  0  0  0  0  0  0  0  0
    0.0412   -1.9157    0.0000 C   0  0  0  0  0  0  0  0  0  0  0  0
   -2.1082   -3.1532    0.0000 H   0  0  0  0  0  0  0  0  0  0  0  0
   -1.8058   -0.3666    0.0000 H   0  0  0  0  0  0  0  0  0  0  0  0
    0.0331    0.5272    0.0000 O   0  0  0  0  0  0  0  0  0  0  0  0
    0.7791   -0.9441    0.0000 C   0  0  0  0  0  0  0  0  0  0  0  0
    1.1953   -1.6564    0.0000 C   0  0  0  0  0  0  0  0  0  0  0  0
    1.1879   -0.2276    0.0000 C   0  0  0  0  0  0  0  0  0  0  0  0
    2.0128   -0.2233    0.0000 C   0  0  0  0  0  0  0  0  0  0  0  0
    2.4216    0.4933    0.0000 C   0  0  0  0  0  0  0  0  0  0  0  0
    3.2466    0.4976    0.0000 C   0  0  0  0  0  0  0  0  0  0  0  0
    3.6553    1.2141    0.0000 C   0  0  2  0  0  0  0  0  0  0  0  0
    3.6627   -0.2147    0.0000 C   0  0  0  0  0  0  0  0  0  0  0  0
    4.4802    1.2184    0.0000 C   0  0  0  0  0  0  0  0  0  0  0  0
    3.2391    1.9264    0.0000 O   0  0  0  0  0  0  0  0  0  0  0  0
    4.8890    1.9350    0.0000 C   0  0  0  0  0  0  0  0  0  0  0  0
    5.7139    1.9393    0.0000 C   0  0  0  0  0  0  0  0  0  0  0  0
    6.1226    2.6558    0.0000 C   0  0  0  0  0  0  0  0  0  0  0  0
    6.1301    1.2270    0.0000 C   0  0  0  0  0  0  0  0  0  0  0  0
   -3.5381   -3.1532    0.0000 C   0  0  0  0  0  0  0  0  0  0  0  0
   -3.5427   -3.9781    0.0000 O   0  0  0  0  0  0  0  0  0  0  0  0
    3.6478    2.6429    0.0000 C   0  0  0  0  0  0  0  0  0  0  0  0
    3.2317    3.3552    0.0000 O   0  0  0  0  0  0  0  0  0  0  0  0
    4.4728    2.6472    0.0000 C   0  0  0  0  0  0  0  0  0  0  0  0
 10 20  1  6  0  0  0
  3  6  1  0  0  0  0
  6 21  1  6  0  0  0
  5  4  1  0  0  0  0
  9 22  1  1  0  0  0
  5  6  1  0  0  0  0
 12 23  2  0  0  0  0
 11 24  2  0  0  0  0
  1  2  1  0  0  0  0
 24 25  1  0  0  0  0
 10 11  1  0  0  0  0
 24 26  1  0  0  0  0
 11 12  1  0  0  0  0
 26 27  2  0  0  0  0
 12 13  1  0  0  0  0
 27 28  1  0  0  0  0
 13  9  1  0  0  0  0
 28 29  2  0  0  0  0
  1  4  1  0  0  0  0
 29 30  1  0  0  0  0
  2 14  1  1  0  0  0
 29 31  1  0  0  0  0
  2  3  1  0  0  0  0
 30 32  1  0  0  0  0
 14 15  1  0  0  0  0
 30 33  1  1  0  0  0
  5  9  1  0  0  0  0
 32 34  1  0  0  0  0
 15 16  1  0  0  0  0
 34 35  2  0  0  0  0
  6  7  1  0  0  0  0
 35 36  1  0  0  0  0
 15 17  2  0  0  0  0
 35 37  1  0  0  0  0
  7  8  1  0  0  0  0
  3 38  1  1  0  0  0
  3 18  1  0  0  0  0
 38 39  1  0  0  0  0
  8 10  1  0  0  0  0
 33 40  1  0  0  0  0
  5 19  1  1  0  0  0
 40 41  2  0  0  0  0
  9 10  1  0  0  0  0
 40 42  1  0  0  0  0
M  END
>  <Mol Weight>
554.7572

>  <Formula>
C34H50O6

>  <chembl_id>
CHEMBL504332

$$$$

  Mrv0541 06201412482D          

 41 45  0  0  0  0            999 V2000
   11.9822  -24.3467    0.0000 C   0  0  0  0  0  0  0  0  0  0  0  0
   11.9822  -25.1763    0.0000 C   0  0  0  0  0  0  0  0  0  0  0  0
   12.6966  -25.5888    0.0000 C   0  0  0  0  0  0  0  0  0  0  0  0
   13.4157  -25.1763    0.0000 N   0  0  0  0  0  0  0  0  0  0  0  0
   13.4157  -24.3467    0.0000 C   0  0  0  0  0  0  0  0  0  0  0  0
   12.6966  -23.9296    0.0000 C   0  0  0  0  0  0  0  0  0  0  0  0
   14.1296  -25.5898    0.0000 C   0  0  0  0  0  0  0  0  0  0  0  0
   14.1284  -26.4148    0.0000 C   0  0  1  0  0  0  0  0  0  0  0  0
   13.4631  -26.8981    0.0000 C   0  0  0  0  0  0  0  0  0  0  0  0
   13.7170  -27.6831    0.0000 N   0  0  0  0  0  0  0  0  0  0  0  0
   14.5420  -27.6842    0.0000 C   0  0  0  0  0  0  0  0  0  0  0  0
   14.7978  -26.8999    0.0000 C   0  0  2  0  0  0  0  0  0  0  0  0
   15.5825  -26.6449    0.0000 C   0  0  0  0  0  0  0  0  0  0  0  0
   13.2311  -28.3498    0.0000 C   0  0  1  0  0  0  0  0  0  0  0  0
   13.5656  -29.1040    0.0000 C   0  0  0  0  0  0  0  0  0  0  0  0
   16.1936  -27.1980    0.0000 C   0  0  0  0  0  0  0  0  0  0  0  0
   16.9776  -26.9436    0.0000 C   0  0  0  0  0  0  0  0  0  0  0  0
   17.1498  -26.1359    0.0000 C   0  0  0  0  0  0  0  0  0  0  0  0
   16.5317  -25.5830    0.0000 C   0  0  0  0  0  0  0  0  0  0  0  0
   15.7501  -25.8403    0.0000 C   0  0  0  0  0  0  0  0  0  0  0  0
   12.4107  -28.2625    0.0000 C   0  0  0  0  0  0  0  0  0  0  0  0
   13.0812  -29.7741    0.0000 O   0  0  0  0  0  0  0  0  0  0  0  0
   14.3874  -29.1947    0.0000 O   0  0  0  0  0  0  0  0  0  0  0  0
   11.9249  -28.9292    0.0000 C   0  0  0  0  0  0  0  0  0  0  0  0
   17.5904  -27.4959    0.0000 F   0  0  0  0  0  0  0  0  0  0  0  0
   11.2666  -23.9360    0.0000 C   0  0  0  0  0  0  0  0  0  0  0  0
   10.5532  -24.3501    0.0000 C   0  0  0  0  0  0  0  0  0  0  0  0
    9.8377  -23.9394    0.0000 C   0  0  0  0  0  0  0  0  0  0  0  0
    9.1243  -24.3535    0.0000 C   0  0  0  0  0  0  0  0  0  0  0  0
    8.4106  -23.9418    0.0000 C   0  0  0  0  0  0  0  0  0  0  0  0
    7.6976  -24.3553    0.0000 C   0  0  0  0  0  0  0  0  0  0  0  0
    7.6991  -25.1812    0.0000 C   0  0  0  0  0  0  0  0  0  0  0  0
    8.4196  -25.5918    0.0000 C   0  0  0  0  0  0  0  0  0  0  0  0
    9.1297  -25.1759    0.0000 C   0  0  0  0  0  0  0  0  0  0  0  0
    6.9862  -25.5964    0.0000 F   0  0  0  0  0  0  0  0  0  0  0  0
   11.1757  -29.2658    0.0000 C   0  0  0  0  0  0  0  0  0  0  0  0
   11.8424  -29.7517    0.0000 C   0  0  0  0  0  0  0  0  0  0  0  0
    9.8358  -23.1144    0.0000 O   0  0  0  0  0  0  0  0  0  0  0  0
   10.5492  -22.7001    0.0000 C   0  0  0  0  0  0  0  0  0  0  0  0
   11.2646  -23.1110    0.0000 C   0  0  0  0  0  0  0  0  0  0  0  0
   11.9782  -22.6967    0.0000 O   0  0  0  0  0  0  0  0  0  0  0  0
 19 20  2  0  0  0  0
 20 13  1  0  0  0  0
  3  4  1  0  0  0  0
 14 21  1  0  0  0  0
  4  5  1  0  0  0  0
  9 10  1  0  0  0  0
 15 22  2  0  0  0  0
 15 23  1  0  0  0  0
 10 11  1  0  0  0  0
 21 24  1  0  0  0  0
 11 12  1  0  0  0  0
 17 25  1  0  0  0  0
 12  8  1  0  0  0  0
  1 26  1  0  0  0  0
  5  6  1  0  0  0  0
 26 27  1  0  0  0  0
 12 13  1  1  0  0  0
 27 28  1  0  0  0  0
 28 29  1  0  0  0  0
 10 14  1  0  0  0  0
 29 30  2  0  0  0  0
  4  7  1  0  0  0  0
 30 31  1  0  0  0  0
 14 15  1  1  0  0  0
 31 32  2  0  0  0  0
  1  2  1  0  0  0  0
 32 33  1  0  0  0  0
 13 16  2  0  0  0  0
 33 34  2  0  0  0  0
 34 29  1  0  0  0  0
  8  7  1  6  0  0  0
 32 35  1  0  0  0  0
 36 24  1  0  0  0  0
 37 36  1  0  0  0  0
 24 37  1  0  0  0  0
 16 17  1  0  0  0  0
  8  9  1  0  0  0  0
 17 18  2  0  0  0  0
 28 38  1  0  0  0  0
  1  6  1  0  0  0  0
 38 39  1  0  0  0  0
 18 19  1  0  0  0  0
 39 40  1  0  0  0  0
  2  3  1  0  0  0  0
 40 41  1  0  0  0  0
M  END
>  <Mol Weight>
570.7103

>  <Formula>
C33H44F2N2O4

>  <chembl_id>
CHEMBL504250

$$$$

  Mrv0541 06201412482D          

 43 47  0  0  1  0            999 V2000
    2.2364   -0.2589    0.0000 C   0  0  1  0  0  0  0  0  0  0  0  0
    1.5328   -1.5934    0.0000 C   0  0  1  0  0  0  0  0  0  0  0  0
    2.2486   -1.1809    0.0000 C   0  0  1  0  0  0  0  0  0  0  0  0
    0.1092   -1.5813    0.0000 C   0  0  2  0  0  0  0  0  0  0  0  0
    0.8250   -1.1809    0.0000 C   0  0  1  0  0  0  0  0  0  0  0  0
    1.5449    0.2548    0.0000 C   0  0  2  0  0  0  0  0  0  0  0  0
    0.1011   -2.4143    0.0000 C   0  0  2  0  0  0  0  0  0  0  0  0
   -1.3183   -2.4063    0.0000 C   0  0  0  0  0  0  0  0  0  0  0  0
    2.9603   -1.6055    0.0000 C   0  0  2  0  0  0  0  0  0  0  0  0
   -0.6147   -2.8147    0.0000 C   0  0  0  0  0  0  0  0  0  0  0  0
    1.5328   -2.4184    0.0000 C   0  0  2  0  0  0  0  0  0  0  0  0
    0.8291   -0.2589    0.0000 C   0  0  2  0  0  0  0  0  0  0  0  0
    2.9603   -2.4184    0.0000 C   0  0  0  0  0  0  0  0  0  0  0  0
    1.5934   -0.5136    0.0000 O   0  0  0  0  0  0  0  0  0  0  0  0
    2.2445   -2.8309    0.0000 O   0  0  0  0  0  0  0  0  0  0  0  0
   -1.3183   -1.5772    0.0000 C   0  0  0  0  0  0  0  0  0  0  0  0
   -0.6025   -1.1688    0.0000 C   0  0  0  0  0  0  0  0  0  0  0  0
    2.9886    0.0202    0.0000 C   0  0  0  0  0  0  0  0  0  0  0  0
    0.8169   -2.8309    0.0000 C   0  0  0  0  0  0  0  0  0  0  0  0
    1.1324   -0.8250    0.0000 C   0  0  0  0  0  0  0  0  0  0  0  0
   -2.0382   -2.8147    0.0000 O   0  0  0  0  0  0  0  0  0  0  0  0
   -2.7257   -2.4184    0.0000 C   0  0  0  0  0  0  0  0  0  0  0  0
    4.6710   -1.6055    0.0000 C   0  0  0  0  0  0  0  0  0  0  0  0
    3.8136   -1.1081    0.0000 O   0  0  0  0  0  0  0  0  0  0  0  0
    3.5225   -2.7581    0.0000 O   0  0  0  0  0  0  0  0  0  0  0  0
   -2.0261   -1.1566    0.0000 O   0  0  0  0  0  0  0  0  0  0  0  0
    2.9603    0.8209    0.0000 O   0  0  0  0  0  0  0  0  0  0  0  0
   -2.7257   -1.6257    0.0000 O   0  0  0  0  0  0  0  0  0  0  0  0
    4.6750   -2.5883    0.0000 O   0  0  0  0  0  0  0  0  0  0  0  0
    1.5449    0.7967    0.0000 O   0  0  0  0  0  0  0  0  0  0  0  0
    0.1011    0.1536    0.0000 O   0  0  0  0  0  0  0  0  0  0  0  0
    0.1213   -0.9463    0.0000 C   0  0  0  0  0  0  0  0  0  0  0  0
    3.5225   -0.2831    0.0000 O   0  0  0  0  0  0  0  0  0  0  0  0
   -3.4172   -2.8066    0.0000 O   0  0  0  0  0  0  0  0  0  0  0  0
    5.5243   -1.1081    0.0000 O   0  0  0  0  0  0  0  0  0  0  0  0
   -0.6147   -3.6397    0.0000 C   0  0  0  0  0  0  0  0  0  0  0  0
    6.3816   -1.6015    0.0000 C   0  0  0  0  0  0  0  0  0  0  0  0
   -4.1088   -2.4063    0.0000 C   0  0  0  0  0  0  0  0  0  0  0  0
    4.2625    0.0000    0.0000 C   0  0  0  0  0  0  0  0  0  0  0  0
    1.5287   -3.2515    0.0000 H   0  0  0  0  0  0  0  0  0  0  0  0
    0.8169   -1.8563    0.0000 H   0  0  0  0  0  0  0  0  0  0  0  0
    2.2445   -1.8603    0.0000 H   0  0  0  0  0  0  0  0  0  0  0  0
    0.1011   -3.2393    0.0000 H   0  0  0  0  0  0  0  0  0  0  0  0
  2  3  1  0  0  0  0
  3  1  1  0  0  0  0
  4  5  1  0  0  0  0
  5 12  1  0  0  0  0
  6  1  1  0  0  0  0
  7  4  1  0  0  0  0
  8 16  1  0  0  0  0
  9  3  1  0  0  0  0
 10  7  1  0  0  0  0
 11  2  1  0  0  0  0
 12  6  1  0  0  0  0
 13  9  1  0  0  0  0
  1 14  1  0  0  0  0
 15 13  1  0  0  0  0
 16 17  1  0  0  0  0
 17  4  1  0  0  0  0
  1 18  1  1  0  0  0
 19 11  1  0  0  0  0
 20 14  1  0  0  0  0
 21  8  1  0  0  0  0
 22 21  1  0  0  0  0
 23 24  1  0  0  0  0
  9 24  1  1  0  0  0
 25 13  2  0  0  0  0
 26 16  2  0  0  0  0
 27 18  2  0  0  0  0
 28 22  2  0  0  0  0
 29 23  2  0  0  0  0
  6 30  1  6  0  0  0
 12 31  1  1  0  0  0
  4 32  1  1  0  0  0
 33 18  1  0  0  0  0
 34 22  1  0  0  0  0
 35 23  1  0  0  0  0
 36 10  1  0  0  0  0
 37 35  1  0  0  0  0
 38 34  1  0  0  0  0
 39 33  1  0  0  0  0
 11 40  1  1  0  0  0
  5 41  1  6  0  0  0
  3 42  1  1  0  0  0
  7 43  1  6  0  0  0
  2 20  1  1  0  0  0
  5  2  1  0  0  0  0
 15 11  1  0  0  0  0
  7 19  1  0  0  0  0
 10  8  2  0  0  0  0
M  END
>  <Mol Weight>
554.4973

>  <Formula>
C25H30O14

>  <chembl_id>
CHEMBL157367

$$$$

  Mrv0541 06201412482D          
 
 45 49  0  0  0  0            999 V2000
   -0.3506   -2.0722    0.0000 C   0  0  0  0  0  0  0  0  0  0  0  0
   -0.3464   -1.2472    0.0000 C   0  0  1  0  0  0  0  0  0  0  0  0
   -1.0630   -1.6561    0.0000 O   0  0  0  0  0  0  0  0  0  0  0  0
   -1.0547   -0.0140    0.0000 C   0  0  1  0  0  0  0  0  0  0  0  0
   -1.0547   -0.8389    0.0000 C   0  0  2  0  0  0  0  0  0  0  0  0
   -0.3427    0.4027    0.0000 C   0  0  0  0  0  0  0  0  0  0  0  0
    0.3693   -0.0140    0.0000 C   0  0  1  0  0  0  0  0  0  0  0  0
    0.3704   -0.8389    0.0000 C   0  0  1  0  0  0  0  0  0  0  0  0
    1.0814   -1.2482    0.0000 C   0  0  2  0  0  0  0  0  0  0  0  0
    1.7960   -0.8371    0.0000 C   0  0  0  0  0  0  0  0  0  0  0  0
    1.7949   -0.0122    0.0000 C   0  0  2  0  0  0  0  0  0  0  0  0
    1.0793    0.4017    0.0000 C   0  0  1  0  0  0  0  0  0  0  0  0
    0.6619    1.1193    0.0000 C   0  0  0  0  0  0  0  0  0  0  0  0
    1.4869    1.1193    0.0000 C   0  0  2  0  0  0  0  0  0  0  0  0
    2.3071    1.2114    0.0000 C   0  0  0  0  0  0  0  0  0  0  0  0
    1.1460    1.8709    0.0000 O   0  0  0  0  0  0  0  0  0  0  0  0
    3.0778    2.5749    0.0000 C   0  0  0  0  0  0  0  0  0  0  0  0
    2.7386    3.3241    0.0000 C   0  0  2  0  0  0  0  0  0  0  0  0
    1.9213    3.2330    0.0000 O   0  0  0  0  0  0  0  0  0  0  0  0
    2.0703    0.5360    0.0000 H   0  0  0  0  0  0  0  0  0  0  0  0
    2.5036    0.4068    0.0000 C   0  0  0  0  0  0  0  0  0  0  0  0
    1.0813   -2.0732    0.0000 O   0  0  0  0  0  0  0  0  0  0  0  0
    1.7957   -2.4858    0.0000 C   0  0  0  0  0  0  0  0  0  0  0  0
    1.7966   -3.3109    0.0000 O   0  0  0  0  0  0  0  0  0  0  0  0
    2.5112   -2.0735    0.0000 C   0  0  0  0  0  0  0  0  0  0  0  0
   -1.7691   -1.2516    0.0000 O   0  0  0  0  0  0  0  0  0  0  0  0
   -2.5326   -0.8250    0.0000 C   0  0  0  0  0  0  0  0  0  0  0  0
   -3.2492   -1.2337    0.0000 C   0  0  1  0  0  0  0  0  0  0  0  0
   -2.5283    0.0000    0.0000 O   0  0  0  0  0  0  0  0  0  0  0  0
   -3.2536   -2.0587    0.0000 C   0  0  0  0  0  0  0  0  0  0  0  0
   -3.9615   -0.8175    0.0000 C   0  0  0  0  0  0  0  0  0  0  0  0
   -3.9702   -2.4675    0.0000 C   0  0  0  0  0  0  0  0  0  0  0  0
    0.3937    0.8107    0.0000 H   0  0  0  0  0  0  0  0  0  0  0  0
    3.1453    4.0443    0.0000 O   0  0  0  0  0  0  0  0  0  0  0  0
    3.9702    4.0522    0.0000 C   0  0  0  0  0  0  0  0  0  0  0  0
   -1.7704    0.3964    0.0000 O   0  0  0  0  0  0  0  0  0  0  0  0
    0.3661   -1.6597    0.0000 C   0  0  0  0  0  0  0  0  0  0  0  0
    0.3203   -2.8181    0.0000 O   0  0  0  0  0  0  0  0  0  0  0  0
   -0.3963   -3.2270    0.0000 C   0  0  0  0  0  0  0  0  0  0  0  0
   -1.1090   -2.8111    0.0000 O   0  0  0  0  0  0  0  0  0  0  0  0
   -0.4008   -4.0522    0.0000 C   0  0  0  0  0  0  0  0  0  0  0  0
    2.4701    2.0208    0.0000 C   0  0  1  0  0  0  0  0  0  0  0  0
    3.1846    1.6083    0.0000 H   0  0  0  0  0  0  0  0  0  0  0  0
    1.7553    2.4275    0.0000 C   0  0  2  0  0  0  0  0  0  0  0  0
    1.0408    2.8400    0.0000 H   0  0  0  0  0  0  0  0  0  0  0  0
 42 17  1  0  0  0  0
 17 18  1  0  0  0  0
 18 19  1  0  0  0  0
 19 44  1  0  0  0  0
  4  6  1  0  0  0  0
 14 20  1  6  0  0  0
  7 12  1  0  0  0  0
 11 21  1  6  0  0  0
  8  9  1  0  0  0  0
  9 22  1  6  0  0  0
  9 10  1  0  0  0  0
 22 23  1  0  0  0  0
 10 11  1  0  0  0  0
 11 12  1  0  0  0  0
 23 24  2  0  0  0  0
 23 25  1  0  0  0  0
  2  5  1  0  0  0  0
  5 26  1  1  0  0  0
 12 13  1  6  0  0  0
 26 27  1  0  0  0  0
  2  8  1  0  0  0  0
 27 28  1  0  0  0  0
 12 14  1  0  0  0  0
 27 29  2  0  0  0  0
 14 15  1  0  0  0  0
 28 30  1  0  0  0  0
  7  6  1  0  0  0  0
 28 31  1  1  0  0  0
  7  8  1  0  0  0  0
 30 32  1  0  0  0  0
 15 42  1  0  0  0  0
  7 33  1  1  0  0  0
 44 16  1  0  0  0  0
 18 34  1  6  0  0  0
 16 14  1  0  0  0  0
 34 35  1  0  0  0  0
 44 42  1  0  0  0  0
  4 36  1  6  0  0  0
  2  3  1  6  0  0  0
  8 37  1  6  0  0  0
  5  4  1  0  0  0  0
  1  3  1  0  0  0  0
 38 39  1  0  0  0  0
  2  1  1  0  0  0  0
 39 40  2  0  0  0  0
 39 41  1  0  0  0  0
 37 38  1  0  0  0  0
 42 43  1  1  0  0  0
 44 45  1  1  0  0  0
M  END
>  <Mol Weight>
582.6796

>  <Formula>
C30H46O11

>  <chembl_id>
CHEMBL503258

$$$$

  Mrv0541 06201412482D          

 47 52  0  0  0  0            999 V2000
   17.5667  -20.8833    0.0000 C   0  0  0  0  0  0  0  0  0  0  0  0
   17.5667  -21.7083    0.0000 C   0  0  1  0  0  0  0  0  0  0  0  0
   18.2787  -22.1167    0.0000 C   0  0  0  0  0  0  0  0  0  0  0  0
   18.2787  -20.4667    0.0000 C   0  0  0  0  0  0  0  0  0  0  0  0
   18.9907  -20.8833    0.0000 C   0  0  1  0  0  0  0  0  0  0  0  0
   19.6960  -22.1216    0.0000 C   0  0  0  0  0  0  0  0  0  0  0  0
   20.4128  -21.7144    0.0000 C   0  0  0  0  0  0  0  0  0  0  0  0
   19.7030  -20.4716    0.0000 C   0  0  2  0  0  0  0  0  0  0  0  0
   20.4163  -20.8942    0.0000 C   0  0  2  0  0  0  0  0  0  0  0  0
   20.4333  -19.2389    0.0000 C   0  0  0  0  0  0  0  0  0  0  0  0
   19.7084  -19.6447    0.0000 C   0  0  0  0  0  0  0  0  0  0  0  0
   21.1467  -19.6616    0.0000 C   0  0  0  0  0  0  0  0  0  0  0  0
   21.1331  -20.4918    0.0000 C   0  0  1  0  0  0  0  0  0  0  0  0
   21.8414  -20.9163    0.0000 C   0  0  0  0  0  0  0  0  0  0  0  0
   22.5677  -20.5152    0.0000 C   0  0  0  0  0  0  0  0  0  0  0  0
   21.8685  -19.2559    0.0000 C   0  0  1  0  0  0  0  0  0  0  0  0
   22.5824  -19.6884    0.0000 C   0  0  2  0  0  0  0  0  0  0  0  0
   23.3100  -19.2887    0.0000 C   0  0  0  0  0  0  0  0  0  0  0  0
   23.3299  -18.4548    0.0000 C   0  0  0  0  0  0  0  0  0  0  0  0
   22.6160  -18.0222    0.0000 C   0  0  2  0  0  0  0  0  0  0  0  0
   21.8821  -18.4235    0.0000 C   0  0  2  0  0  0  0  0  0  0  0  0
   22.6343  -17.1974    0.0000 C   0  0  0  0  0  0  0  0  0  0  0  0
   21.1759  -17.9970    0.0000 C   0  0  0  0  0  0  0  0  0  0  0  0
   23.2917  -20.1000    0.0000 C   0  0  0  0  0  0  0  0  0  0  0  0
   23.2921  -20.9187    0.0000 N   0  0  0  0  0  0  0  0  0  0  0  0
   24.0049  -19.6903    0.0000 O   0  0  0  0  0  0  0  0  0  0  0  0
   21.1250  -21.3167    0.0000 C   0  0  0  0  0  0  0  0  0  0  0  0
   18.9833  -20.0583    0.0000 C   0  0  0  0  0  0  0  0  0  0  0  0
   20.4083  -20.0667    0.0000 C   0  0  0  0  0  0  0  0  0  0  0  0
   19.6958  -21.2958    0.0000 H   0  0  0  0  0  0  0  0  0  0  0  0
   16.8528  -22.1219    0.0000 O   0  0  0  0  0  0  0  0  0  0  0  0
   17.8583  -22.8292    0.0000 C   0  0  0  0  0  0  0  0  0  0  0  0
   18.6833  -22.8292    0.0000 C   0  0  0  0  0  0  0  0  0  0  0  0
   21.8625  -20.0792    0.0000 H   0  0  0  0  0  0  0  0  0  0  0  0
   16.1377  -21.7104    0.0000 C   0  0  0  0  0  0  0  0  0  0  0  0
   15.4239  -22.1239    0.0000 C   0  0  0  0  0  0  0  0  0  0  0  0
   16.1365  -20.8854    0.0000 O   0  0  0  0  0  0  0  0  0  0  0  0
   24.0067  -21.3309    0.0000 C   0  0  0  0  0  0  0  0  0  0  0  0
   24.0018  -22.1552    0.0000 C   0  0  0  0  0  0  0  0  0  0  0  0
   24.7156  -22.5673    0.0000 C   0  0  0  0  0  0  0  0  0  0  0  0
   25.4309  -22.1544    0.0000 C   0  0  0  0  0  0  0  0  0  0  0  0
   25.4278  -21.3252    0.0000 C   0  0  0  0  0  0  0  0  0  0  0  0
   24.7134  -20.9168    0.0000 C   0  0  0  0  0  0  0  0  0  0  0  0
   23.2861  -22.5656    0.0000 C   0  0  0  0  0  0  0  0  0  0  0  0
   22.5729  -22.1510    0.0000 O   0  0  0  0  0  0  0  0  0  0  0  0
   18.9872  -21.7083    0.0000 C   0  0  1  0  0  0  0  0  0  0  0  0
   18.9872  -22.5333    0.0000 H   0  0  0  0  0  0  0  0  0  0  0  0
 18 19  1  0  0  0  0
 19 20  1  0  0  0  0
 20 21  1  0  0  0  0
  5 46  1  0  0  0  0
 20 22  1  6  0  0  0
 21 23  1  1  0  0  0
  8 11  1  0  0  0  0
 17 24  1  1  0  0  0
  9 13  1  0  0  0  0
 12 10  2  0  0  0  0
 24 25  1  0  0  0  0
 24 26  2  0  0  0  0
 10 11  1  0  0  0  0
 13 27  1  6  0  0  0
 12 13  1  0  0  0  0
  5 28  1  1  0  0  0
  1  2  1  0  0  0  0
  9 29  1  1  0  0  0
  1  4  1  0  0  0  0
  8 30  1  6  0  0  0
  2  3  1  0  0  0  0
  2 31  1  1  0  0  0
  5  8  1  0  0  0  0
  3 32  1  0  0  0  0
 12 16  1  0  0  0  0
  3 33  1  0  0  0  0
 13 14  1  0  0  0  0
 16 34  1  1  0  0  0
 14 15  1  0  0  0  0
 31 35  1  0  0  0  0
 15 17  1  0  0  0  0
 35 36  1  0  0  0  0
 16 17  1  0  0  0  0
 35 37  2  0  0  0  0
 46  6  1  0  0  0  0
 25 38  1  0  0  0  0
  6  7  1  0  0  0  0
 38 39  2  0  0  0  0
  7  9  1  0  0  0  0
 39 40  1  0  0  0  0
  8  9  1  0  0  0  0
 40 41  2  0  0  0  0
  3 46  1  0  0  0  0
 41 42  1  0  0  0  0
  5  4  1  0  0  0  0
 42 43  2  0  0  0  0
 43 38  1  0  0  0  0
 16 21  1  0  0  0  0
 39 44  1  0  0  0  0
 17 18  1  0  0  0  0
 44 45  1  0  0  0  0
 46 47  1  6  0  0  0
M  END
>  <Mol Weight>
603.8742

>  <Formula>
C39H57NO4

>  <chembl_id>
CHEMBL503266

$$$$

  Mrv0541 06201412482D          

 44 47  0  0  0  0            999 V2000
    2.4045   -1.1546    0.0000 C   0  0  0  0  0  0  0  0  0  0  0  0
   -3.2708   -1.2208    0.0000 C   0  0  0  0  0  0  0  0  0  0  0  0
   -2.5564   -0.8083    0.0000 N   0  0  0  0  0  0  0  0  0  0  0  0
   -3.9853   -0.8083    0.0000 N   0  0  0  0  0  0  0  0  0  0  0  0
   -3.2708   -2.0458    0.0000 O   0  0  0  0  0  0  0  0  0  0  0  0
   -1.8419   -1.2208    0.0000 C   0  0  2  0  0  0  0  0  0  0  0  0
   -1.1274   -0.8083    0.0000 C   0  0  0  0  0  0  0  0  0  0  0  0
   -1.8419   -2.0458    0.0000 C   0  0  0  0  0  0  0  0  0  0  0  0
   -0.4129   -1.2208    0.0000 O   0  0  0  0  0  0  0  0  0  0  0  0
   -1.1274    0.0167    0.0000 N   0  0  0  0  0  0  0  0  0  0  0  0
   -1.7927    0.5031    0.0000 C   0  0  0  0  0  0  0  0  0  0  0  0
   -1.5379    1.2877    0.0000 C   0  0  2  0  0  0  0  0  0  0  0  0
   -0.7170    1.2875    0.0000 C   0  0  1  0  0  0  0  0  0  0  0  0
   -1.1272    1.9985    0.0000 C   0  0  0  0  0  0  0  0  0  0  0  0
   -1.8458    2.4125    0.0000 C   0  0  0  0  0  0  0  0  0  0  0  0
   -0.4167    2.4167    0.0000 C   0  0  0  0  0  0  0  0  0  0  0  0
    0.2586    0.0878    0.0000 C   0  0  0  0  0  0  0  0  0  0  0  0
    0.2580   -0.7372    0.0000 O   0  0  0  0  0  0  0  0  0  0  0  0
    0.9736    0.4995    0.0000 N   0  0  0  0  0  0  0  0  0  0  0  0
    1.6876    0.0862    0.0000 C   0  0  2  0  0  0  0  0  0  0  0  0
    2.4025    0.4980    0.0000 C   0  0  0  0  0  0  0  0  0  0  0  0
    1.6867   -0.7388    0.0000 C   0  0  0  0  0  0  0  0  0  0  0  0
    3.1165    0.0847    0.0000 C   0  0  0  0  0  0  0  0  0  0  0  0
    2.4034    1.3230    0.0000 O   0  0  0  0  0  0  0  0  0  0  0  0
    3.1156   -0.7403    0.0000 O   0  0  0  0  0  0  0  0  0  0  0  0
    3.8315    0.4964    0.0000 N   0  0  0  0  0  0  0  0  0  0  0  0
   -2.2583    1.7042    0.0000 H   0  0  0  0  0  0  0  0  0  0  0  0
   -0.0083    1.7042    0.0000 H   0  0  0  0  0  0  0  0  0  0  0  0
   -1.1274   -2.4583    0.0000 C   0  0  0  0  0  0  0  0  0  0  0  0
   -0.4129   -2.0458    0.0000 C   0  0  0  0  0  0  0  0  0  0  0  0
    2.4033   -1.9796    0.0000 C   0  0  0  0  0  0  0  0  0  0  0  0
   -0.0083   -2.7542    0.0000 C   0  0  0  0  0  0  0  0  0  0  0  0
    0.8167   -2.7542    0.0000 C   0  0  0  0  0  0  0  0  0  0  0  0
    1.0292   -1.9542    0.0000 C   0  0  0  0  0  0  0  0  0  0  0  0
    1.7417   -2.3667    0.0000 C   0  0  0  0  0  0  0  0  0  0  0  0
   -3.9853    0.0167    0.0000 C   0  0  0  0  0  0  0  0  0  0  0  0
   -3.2701    0.4298    0.0000 C   0  0  0  0  0  0  0  0  0  0  0  0
   -3.2681    1.2512    0.0000 C   0  0  0  0  0  0  0  0  0  0  0  0
   -3.9808    1.6676    0.0000 C   0  0  0  0  0  0  0  0  0  0  0  0
   -4.6970    1.2563    0.0000 C   0  0  0  0  0  0  0  0  0  0  0  0
   -4.7007    0.4287    0.0000 C   0  0  0  0  0  0  0  0  0  0  0  0
   -3.2750   -0.3958    0.0000 C   0  0  0  0  0  0  0  0  0  0  0  0
   -0.4581    0.5030    0.0000 C   0  0  1  0  0  0  0  0  0  0  0  0
    0.1253    1.0864    0.0000 H   0  0  0  0  0  0  0  0  0  0  0  0
  2  4  1  0  0  0  0
 20 21  1  6  0  0  0
 43 13  1  0  0  0  0
 20 22  1  0  0  0  0
 22  1  1  0  0  0  0
 12 11  1  0  0  0  0
 21 23  1  0  0  0  0
 11 10  1  0  0  0  0
 21 24  2  0  0  0  0
 13 12  1  0  0  0  0
 23 25  2  0  0  0  0
 13 14  1  0  0  0  0
 23 26  1  0  0  0  0
 12 14  1  0  0  0  0
 12 27  1  6  0  0  0
  6  7  1  0  0  0  0
 13 28  1  6  0  0  0
  2  3  1  0  0  0  0
  8 29  1  0  0  0  0
  6  8  1  0  0  0  0
 29 30  1  0  0  0  0
  2  5  2  0  0  0  0
  1 31  1  0  0  0  0
 31 35  1  0  0  0  0
 14 15  1  0  0  0  0
 30 32  1  0  0  0  0
  7  9  2  0  0  0  0
 32 33  1  0  0  0  0
 14 16  1  0  0  0  0
 33 34  1  0  0  0  0
 34 35  1  0  0  0  0
  7 10  1  0  0  0  0
  4 36  1  0  0  0  0
 36 37  1  0  0  0  0
 17 18  2  0  0  0  0
 43 17  1  0  0  0  0
 10 43  1  0  0  0  0
 17 19  1  0  0  0  0
  6  3  1  6  0  0  0
 36 41  1  0  0  0  0
 37 38  1  0  0  0  0
 38 39  1  0  0  0  0
 39 40  1  0  0  0  0
 40 41  1  0  0  0  0
 19 20  1  0  0  0  0
 36 42  1  0  0  0  0
 43 44  1  6  0  0  0
M  END
>  <Mol Weight>
573.7671

>  <Formula>
C31H51N5O5

>  <chembl_id>
CHEMBL504560

$$$$

  Mrv0541 06201412482D          

 44 51  0  0  0  0            999 V2000
   -1.6626  -12.7092    0.0000 C   0  0  0  0  0  0  0  0  0  0  0  0
   -0.9462  -12.2959    0.0000 C   0  0  0  0  0  0  0  0  0  0  0  0
   -0.9491  -11.4656    0.0000 C   0  0  0  0  0  0  0  0  0  0  0  0
   -1.6644  -11.0564    0.0000 N   0  0  0  0  0  0  0  0  0  0  0  0
   -2.3773  -12.2964    0.0000 C   0  0  0  0  0  0  0  0  0  0  0  0
   -2.3777  -11.4692    0.0000 C   0  0  0  0  0  0  0  0  0  0  0  0
   -3.0904  -11.0581    0.0000 C   0  0  0  0  0  0  0  0  0  0  0  0
   -3.8073  -11.4699    0.0000 C   0  0  0  0  0  0  0  0  0  0  0  0
   -0.2348  -12.7065    0.0000 C   0  0  0  0  0  0  0  0  0  0  0  0
   -0.2348  -13.5325    0.0000 C   0  0  0  0  0  0  0  0  0  0  0  0
    0.4794  -13.9437    0.0000 C   0  0  0  0  0  0  0  0  0  0  0  0
    1.1941  -13.5301    0.0000 C   0  0  0  0  0  0  0  0  0  0  0  0
    1.1901  -12.7010    0.0000 C   0  0  0  0  0  0  0  0  0  0  0  0
    0.4754  -12.2934    0.0000 C   0  0  0  0  0  0  0  0  0  0  0  0
   -0.2393  -11.0517    0.0000 C   0  0  0  0  0  0  0  0  0  0  0  0
    0.4769  -11.4632    0.0000 C   0  0  0  0  0  0  0  0  0  0  0  0
    1.1892  -11.0487    0.0000 C   0  0  0  0  0  0  0  0  0  0  0  0
    1.1865  -10.2229    0.0000 C   0  0  0  0  0  0  0  0  0  0  0  0
    0.4656   -9.8134    0.0000 C   0  0  0  0  0  0  0  0  0  0  0  0
   -0.2438  -10.2302    0.0000 C   0  0  0  0  0  0  0  0  0  0  0  0
    1.8988   -9.8069    0.0000 C   0  0  0  0  0  0  0  0  0  0  0  0
    2.6153  -10.2156    0.0000 N   0  0  0  0  0  0  0  0  0  0  0  0
    2.6140  -11.0456    0.0000 C   0  0  0  0  0  0  0  0  0  0  0  0
    3.3264  -11.4543    0.0000 C   0  0  0  0  0  0  0  0  0  0  0  0
    4.0411  -11.0417    0.0000 C   0  0  0  0  0  0  0  0  0  0  0  0
    4.0389  -10.2158    0.0000 C   0  0  0  0  0  0  0  0  0  0  0  0
    3.3219   -9.8026    0.0000 C   0  0  0  0  0  0  0  0  0  0  0  0
    4.7519  -11.4508    0.0000 C   0  0  0  0  0  0  0  0  0  0  0  0
    4.8392  -12.2710    0.0000 N   0  0  0  0  0  0  0  0  0  0  0  0
    5.6463  -12.4415    0.0000 C   0  0  0  0  0  0  0  0  0  0  0  0
    6.0578  -11.7265    0.0000 N   0  0  0  0  0  0  0  0  0  0  0  0
    5.5050  -11.1143    0.0000 N   0  0  0  0  0  0  0  0  0  0  0  0
    5.9818  -13.1930    0.0000 C   0  0  0  0  0  0  0  0  0  0  0  0
    5.4961  -13.8611    0.0000 N   0  0  0  0  0  0  0  0  0  0  0  0
    5.8320  -14.6136    0.0000 C   0  0  0  0  0  0  0  0  0  0  0  0
    6.6532  -14.6993    0.0000 C   0  0  0  0  0  0  0  0  0  0  0  0
    7.1376  -14.0263    0.0000 C   0  0  0  0  0  0  0  0  0  0  0  0
    6.7990  -13.2765    0.0000 C   0  0  0  0  0  0  0  0  0  0  0  0
   -3.0896  -12.7127    0.0000 C   0  0  0  0  0  0  0  0  0  0  0  0
   -3.8075  -12.3005    0.0000 N   0  0  0  0  0  0  0  0  0  0  0  0
   -4.4214  -12.8561    0.0000 C   0  0  0  0  0  0  0  0  0  0  0  0
   -4.0827  -13.6116    0.0000 N   0  0  0  0  0  0  0  0  0  0  0  0
   -3.2597  -13.5229    0.0000 N   0  0  0  0  0  0  0  0  0  0  0  0
   -5.2287  -12.6865    0.0000 O   0  0  0  0  0  0  0  0  0  0  0  0
  3 15  1  0  0  0  0
  4  6  1  0  0  0  0
 18 21  1  0  0  0  0
  9 10  2  0  0  0  0
 21 22  1  0  0  0  0
 22 23  1  0  0  0  0
  5  6  2  0  0  0  0
 10 11  1  0  0  0  0
  1  2  2  0  0  0  0
 11 12  2  0  0  0  0
  5  1  1  0  0  0  0
 22 27  1  0  0  0  0
 23 24  1  0  0  0  0
 24 25  1  0  0  0  0
 25 26  1  0  0  0  0
 26 27  1  0  0  0  0
 28 29  1  0  0  0  0
 12 13  1  0  0  0  0
  2  3  1  0  0  0  0
 13 14  2  0  0  0  0
 14  9  1  0  0  0  0
  2  9  1  0  0  0  0
 29 30  2  0  0  0  0
 30 31  1  0  0  0  0
 31 32  1  0  0  0  0
 32 28  2  0  0  0  0
 25 28  1  0  0  0  0
  5 39  1  0  0  0  0
 33 34  2  0  0  0  0
 15 16  2  0  0  0  0
 34 35  1  0  0  0  0
  6  7  1  0  0  0  0
 35 36  2  0  0  0  0
 16 17  1  0  0  0  0
 36 37  1  0  0  0  0
  7  8  2  0  0  0  0
 37 38  2  0  0  0  0
 38 33  1  0  0  0  0
 30 33  1  0  0  0  0
 39 40  1  0  0  0  0
 17 18  2  0  0  0  0
  8 40  1  0  0  0  0
 18 19  1  0  0  0  0
  3  4  2  0  0  0  0
 19 20  2  0  0  0  0
 40 41  1  0  0  0  0
 41 42  2  0  0  0  0
 42 43  1  0  0  0  0
 43 39  2  0  0  0  0
 20 15  1  0  0  0  0
 41 44  1  0  0  0  0
M  END
>  <Mol Weight>
579.6538

>  <Formula>
C34H29N9O

>  <chembl_id>
CHEMBL506077

$$$$

  Mrv0541 06201412482D          

 42 45  0  0  0  0            999 V2000
    5.7669   -6.3748    0.0000 C   0  0  0  0  0  0  0  0  0  0  0  0
    5.7684   -7.1998    0.0000 O   0  0  0  0  0  0  0  0  0  0  0  0
    7.1916   -6.3782    0.0000 C   0  0  2  0  0  0  0  0  0  0  0  0
    7.9032   -5.9648    0.0000 C   0  0  1  0  0  0  0  0  0  0  0  0
    7.2184   -7.2024    0.0000 C   0  0  0  0  0  0  0  0  0  0  0  0
    8.6161   -6.3761    0.0000 C   0  0  1  0  0  0  0  0  0  0  0  0
    8.6152   -7.2000    0.0000 C   0  0  0  0  0  0  0  0  0  0  0  0
    9.3256   -7.6163    0.0000 N   0  0  0  0  0  0  0  0  0  0  0  0
   10.0364   -7.2040    0.0000 C   0  0  0  0  0  0  0  0  0  0  0  0
   10.0388   -6.3771    0.0000 C   0  0  0  0  0  0  0  0  0  0  0  0
    6.6494   -7.8047    0.0000 C   0  0  0  0  0  0  0  0  0  0  0  0
    5.8421   -7.6089    0.0000 C   0  0  0  0  0  0  0  0  0  0  0  0
    5.2736   -8.2149    0.0000 C   0  0  0  0  0  0  0  0  0  0  0  0
    5.5101   -9.0097    0.0000 C   0  0  0  0  0  0  0  0  0  0  0  0
    6.3250   -9.1971    0.0000 C   0  0  0  0  0  0  0  0  0  0  0  0
    6.8874   -8.5935    0.0000 C   0  0  0  0  0  0  0  0  0  0  0  0
    6.5605   -9.9918    0.0000 F   0  0  0  0  0  0  0  0  0  0  0  0
    4.4693   -8.0203    0.0000 F   0  0  0  0  0  0  0  0  0  0  0  0
    8.6161   -5.5511    0.0000 H   0  0  0  0  0  0  0  0  0  0  0  0
    9.3239   -8.4413    0.0000 C   0  0  0  0  0  0  0  0  0  0  0  0
   10.0353   -8.8554    0.0000 C   0  0  0  0  0  0  0  0  0  0  0  0
   10.0337   -9.6807    0.0000 C   0  0  0  0  0  0  0  0  0  0  0  0
   10.7444  -10.0947    0.0000 C   0  0  0  0  0  0  0  0  0  0  0  0
   11.4591   -9.6837    0.0000 C   0  0  0  0  0  0  0  0  0  0  0  0
   11.4580   -8.8540    0.0000 C   0  0  0  0  0  0  0  0  0  0  0  0
   10.7465   -8.4441    0.0000 C   0  0  0  0  0  0  0  0  0  0  0  0
    5.0491   -5.9636    0.0000 C   0  0  0  0  0  0  0  0  0  0  0  0
    4.9594   -5.1458    0.0000 N   0  0  0  0  0  0  0  0  0  0  0  0
    4.1539   -4.9768    0.0000 C   0  0  0  0  0  0  0  0  0  0  0  0
    3.7416   -5.6910    0.0000 N   0  0  0  0  0  0  0  0  0  0  0  0
    4.2961   -6.3040    0.0000 C   0  0  0  0  0  0  0  0  0  0  0  0
    3.8154   -4.2216    0.0000 O   0  0  0  0  0  0  0  0  0  0  0  0
    5.5724   -4.5914    0.0000 C   0  0  0  0  0  0  0  0  0  0  0  0
    5.3991   -3.7868    0.0000 C   0  0  0  0  0  0  0  0  0  0  0  0
    2.9167   -5.6793    0.0000 C   0  0  0  0  0  0  0  0  0  0  0  0
    2.5143   -4.9609    0.0000 C   0  0  0  0  0  0  0  0  0  0  0  0
    1.6894   -4.9490    0.0000 C   0  0  0  0  0  0  0  0  0  0  0  0
    6.3583   -4.8461    0.0000 C   0  0  0  0  0  0  0  0  0  0  0  0
    6.4780   -5.9597    0.0000 N   0  0  0  0  0  0  0  0  0  0  0  0
    7.9124   -5.1383    0.0000 O   0  0  0  0  0  0  0  0  0  0  0  0
    9.3300   -5.9580    0.0000 N   0  0  0  0  0  0  0  0  0  0  0  0
    7.8991   -7.6098    0.0000 O   0  0  0  0  0  0  0  0  0  0  0  0
 13 18  1  0  0  0  0
  6 19  1  1  0  0  0
  8 20  1  0  0  0  0
  1  2  2  0  0  0  0
 20 21  1  0  0  0  0
 21 22  2  0  0  0  0
 22 23  1  0  0  0  0
  3  4  1  0  0  0  0
 23 24  2  0  0  0  0
  3  5  1  6  0  0  0
 24 25  1  0  0  0  0
  4  6  1  0  0  0  0
 25 26  2  0  0  0  0
 26 21  1  0  0  0  0
  1 27  1  0  0  0  0
 27 28  1  0  0  0  0
  6  7  1  0  0  0  0
  7  8  1  0  0  0  0
  8  9  1  0  0  0  0
 28 29  1  0  0  0  0
 29 30  1  0  0  0  0
 30 31  1  0  0  0  0
 31 27  1  0  0  0  0
  9 10  1  0  0  0  0
 29 32  2  0  0  0  0
 28 33  1  0  0  0  0
  5 11  1  0  0  0  0
 33 34  1  0  0  0  0
 11 12  2  0  0  0  0
 30 35  1  0  0  0  0
 12 13  1  0  0  0  0
 35 36  1  0  0  0  0
 13 14  2  0  0  0  0
 36 37  1  0  0  0  0
 14 15  1  0  0  0  0
 33 38  1  0  0  0  0
 15 16  2  0  0  0  0
 16 11  1  0  0  0  0
 15 17  1  0  0  0  0
  4 40  1  6  0  0  0
  1 39  1  0  0  0  0
 39  3  1  0  0  0  0
  6 41  1  0  0  0  0
 10 41  1  0  0  0  0
  7 42  2  0  0  0  0
M  END
>  <Mol Weight>
571.6586

>  <Formula>
C30H39F2N5O4

>  <chembl_id>
CHEMBL508095

$$$$

  Mrv0541 06201412482D          

 44 48  0  0  0  0            999 V2000
   -1.1929   -1.2294    0.0000 C   0  0  0  0  0  0  0  0  0  0  0  0
   -1.1929   -2.0566    0.0000 C   0  0  1  0  0  0  0  0  0  0  0  0
   -0.4805   -2.4680    0.0000 C   0  0  0  0  0  0  0  0  0  0  0  0
   -0.4805   -0.8135    0.0000 C   0  0  0  0  0  0  0  0  0  0  0  0
    0.2366   -1.2294    0.0000 C   0  0  1  0  0  0  0  0  0  0  0  0
    0.2377   -2.0566    0.0000 C   0  0  1  0  0  0  0  0  0  0  0  0
    0.9507   -2.4671    0.0000 C   0  0  0  0  0  0  0  0  0  0  0  0
    1.6671   -2.0548    0.0000 C   0  0  0  0  0  0  0  0  0  0  0  0
    0.9485   -0.8125    0.0000 C   0  0  0  0  0  0  0  0  0  0  0  0
    1.6663   -1.2307    0.0000 C   0  0  0  0  0  0  0  0  0  0  0  0
    1.6708    0.4279    0.0000 C   0  0  0  0  0  0  0  0  0  0  0  0
    0.9476    0.0158    0.0000 C   0  0  0  0  0  0  0  0  0  0  0  0
    2.3888    0.0099    0.0000 C   0  0  1  0  0  0  0  0  0  0  0  0
    3.1658   -1.0812    0.0000 C   0  0  1  0  0  0  0  0  0  0  0  0
    3.6588   -0.4161    0.0000 C   0  0  0  0  0  0  0  0  0  0  0  0
    3.1784    0.2581    0.0000 C   0  0  2  0  0  0  0  0  0  0  0  0
    0.2285   -0.4068    0.0000 C   0  0  0  0  0  0  0  0  0  0  0  0
   -1.9053   -2.4680    0.0000 O   0  0  0  0  0  0  0  0  0  0  0  0
    2.3811    0.8363    0.0000 C   0  0  0  0  0  0  0  0  0  0  0  0
    3.4126   -1.8660    0.0000 O   0  0  0  0  0  0  0  0  0  0  0  0
    3.3866    1.0557    0.0000 C   0  0  1  0  0  0  0  0  0  0  0  0
    4.1738    1.2947    0.0000 C   0  0  0  0  0  0  0  0  0  0  0  0
    2.8011    1.6337    0.0000 C   0  0  0  0  0  0  0  0  0  0  0  0
    4.7743    0.7324    0.0000 C   0  0  0  0  0  0  0  0  0  0  0  0
    5.5615    0.9712    0.0000 C   0  0  1  0  0  0  0  0  0  0  0  0
    6.1620    0.4090    0.0000 C   0  0  0  0  0  0  0  0  0  0  0  0
    5.7482    1.7724    0.0000 O   0  0  0  0  0  0  0  0  0  0  0  0
    5.9753   -0.3923    0.0000 C   0  0  0  0  0  0  0  0  0  0  0  0
    6.9493    0.6478    0.0000 C   0  0  0  0  0  0  0  0  0  0  0  0
    3.9990    0.2605    0.0000 H   0  0  0  0  0  0  0  0  0  0  0  0
    0.2285   -2.8747    0.0000 H   0  0  0  0  0  0  0  0  0  0  0  0
   -2.6177   -2.0566    0.0000 C   0  0  2  0  0  0  0  0  0  0  0  0
   -2.6193   -1.2376    0.0000 O   0  0  0  0  0  0  0  0  0  0  0  0
   -3.3276   -0.8264    0.0000 C   0  0  0  0  0  0  0  0  0  0  0  0
   -4.0424   -1.2342    0.0000 C   0  0  2  0  0  0  0  0  0  0  0  0
   -4.0445   -2.0577    0.0000 C   0  0  1  0  0  0  0  0  0  0  0  0
   -3.3316   -2.4736    0.0000 C   0  0  1  0  0  0  0  0  0  0  0  0
   -4.7534   -0.8201    0.0000 O   0  0  0  0  0  0  0  0  0  0  0  0
   -4.7583   -2.4667    0.0000 O   0  0  0  0  0  0  0  0  0  0  0  0
   -3.3313   -3.2962    0.0000 O   0  0  0  0  0  0  0  0  0  0  0  0
   -4.0436   -3.7078    0.0000 C   0  0  0  0  0  0  0  0  0  0  0  0
   -1.9104   -1.6363    0.0000 H   0  0  0  0  0  0  0  0  0  0  0  0
    2.3810   -0.8179    0.0000 C   0  0  1  0  0  0  0  0  0  0  0  0
    2.3810   -1.6429    0.0000 H   0  0  0  0  0  0  0  0  0  0  0  0
 13 19  1  1  0  0  0
  3  6  1  0  0  0  0
 14 20  1  1  0  0  0
  5  4  1  0  0  0  0
 16 21  1  0  0  0  0
  5  6  1  0  0  0  0
 21 22  1  0  0  0  0
 21 23  1  6  0  0  0
  9 12  2  0  0  0  0
 22 24  1  0  0  0  0
 10 43  1  0  0  0  0
 24 25  1  0  0  0  0
 13 11  1  0  0  0  0
 25 26  1  0  0  0  0
 11 12  1  0  0  0  0
 25 27  1  6  0  0  0
 13 43  1  0  0  0  0
 26 28  1  0  0  0  0
  1  2  1  0  0  0  0
 26 29  1  0  0  0  0
  1  4  1  0  0  0  0
 16 30  1  6  0  0  0
  2  3  1  0  0  0  0
  6 31  1  6  0  0  0
  5  9  1  0  0  0  0
 32 18  1  0  0  0  0
 32 33  1  0  0  0  0
  6  7  1  0  0  0  0
 43 14  1  0  0  0  0
 14 15  1  0  0  0  0
 15 16  1  0  0  0  0
 16 13  1  0  0  0  0
 32 37  1  0  0  0  0
 33 34  1  0  0  0  0
 34 35  1  0  0  0  0
 35 36  1  0  0  0  0
 36 37  1  0  0  0  0
  7  8  1  0  0  0  0
 35 38  1  6  0  0  0
  5 17  1  1  0  0  0
 36 39  1  1  0  0  0
  8 10  2  0  0  0  0
 37 40  1  6  0  0  0
  2 18  1  1  0  0  0
 40 41  1  0  0  0  0
  9 10  1  0  0  0  0
 32 42  1  6  0  0  0
 43 44  1  6  0  0  0
M  END
>  <Mol Weight>
562.7777

>  <Formula>
C33H54O7

>  <chembl_id>
CHEMBL509250

$$$$

  Mrv0541 06201412482D          

 41 45  0  0  0  0            999 V2000
   -2.9287  -11.4537    0.0000 C   0  0  0  0  0  0  0  0  0  0  0  0
   -2.9287  -12.2834    0.0000 C   0  0  0  0  0  0  0  0  0  0  0  0
   -2.2143  -12.6959    0.0000 N   0  0  0  0  0  0  0  0  0  0  0  0
   -1.4952  -12.2834    0.0000 C   0  0  0  0  0  0  0  0  0  0  0  0
   -1.4952  -11.4537    0.0000 C   0  0  0  0  0  0  0  0  0  0  0  0
   -2.2143  -11.0366    0.0000 C   0  0  0  0  0  0  0  0  0  0  0  0
   -0.7850  -12.6959    0.0000 C   0  0  0  0  0  0  0  0  0  0  0  0
   -0.7875  -13.5220    0.0000 C   0  0  0  0  0  0  0  0  0  0  0  0
   -0.0744  -13.9353    0.0000 C   0  0  0  0  0  0  0  0  0  0  0  0
    0.6416  -13.5238    0.0000 C   0  0  0  0  0  0  0  0  0  0  0  0
    0.6401  -12.6945    0.0000 C   0  0  0  0  0  0  0  0  0  0  0  0
   -0.0735  -12.2849    0.0000 C   0  0  0  0  0  0  0  0  0  0  0  0
   -2.2174  -13.5172    0.0000 C   0  0  0  0  0  0  0  0  0  0  0  0
   -2.9341  -13.9282    0.0000 C   0  0  0  0  0  0  0  0  0  0  0  0
   -2.9356  -14.7524    0.0000 C   0  0  0  0  0  0  0  0  0  0  0  0
   -2.2211  -15.1667    0.0000 C   0  0  0  0  0  0  0  0  0  0  0  0
   -1.5037  -14.7508    0.0000 C   0  0  0  0  0  0  0  0  0  0  0  0
   -1.5058  -13.9279    0.0000 C   0  0  0  0  0  0  0  0  0  0  0  0
   -3.6422  -12.6942    0.0000 C   0  0  0  0  0  0  0  0  0  0  0  0
   -4.3570  -12.2800    0.0000 C   0  0  0  0  0  0  0  0  0  0  0  0
   -5.0710  -12.6918    0.0000 C   0  0  0  0  0  0  0  0  0  0  0  0
   -5.0714  -13.5177    0.0000 C   0  0  0  0  0  0  0  0  0  0  0  0
   -4.3519  -13.9299    0.0000 C   0  0  0  0  0  0  0  0  0  0  0  0
   -3.6409  -13.5158    0.0000 C   0  0  0  0  0  0  0  0  0  0  0  0
   -2.2154  -10.2116    0.0000 N   0  0  0  0  0  0  0  0  0  0  0  0
   -0.7803  -11.0420    0.0000 C   0  0  0  0  0  0  0  0  0  0  0  0
   -0.0663  -11.4552    0.0000 O   0  0  0  0  0  0  0  0  0  0  0  0
   -0.7795  -10.2170    0.0000 O   0  0  0  0  0  0  0  0  0  0  0  0
   -0.0646   -9.8052    0.0000 C   0  0  0  0  0  0  0  0  0  0  0  0
   -2.9305   -9.8001    0.0000 C   0  0  0  0  0  0  0  0  0  0  0  0
   -2.9262   -8.9750    0.0000 C   0  0  0  0  0  0  0  0  0  0  0  0
   -3.6404   -8.5635    0.0000 C   0  0  0  0  0  0  0  0  0  0  0  0
   -4.3553   -8.9771    0.0000 C   0  0  0  0  0  0  0  0  0  0  0  0
   -4.3515   -9.8064    0.0000 C   0  0  0  0  0  0  0  0  0  0  0  0
   -3.6367  -10.2140    0.0000 C   0  0  0  0  0  0  0  0  0  0  0  0
   -5.7853  -13.9310    0.0000 F   0  0  0  0  0  0  0  0  0  0  0  0
    1.3561  -13.9363    0.0000 F   0  0  0  0  0  0  0  0  0  0  0  0
   -2.2212  -15.9917    0.0000 O   0  0  0  0  0  0  0  0  0  0  0  0
   -2.9357  -16.4042    0.0000 C   0  0  0  0  0  0  0  0  0  0  0  0
   -5.0709   -8.5666    0.0000 O   0  0  0  0  0  0  0  0  0  0  0  0
   -5.0732   -7.7416    0.0000 C   0  0  0  0  0  0  0  0  0  0  0  0
 19 20  2  0  0  0  0
  3  4  1  0  0  0  0
 20 21  1  0  0  0  0
 10 11  1  0  0  0  0
 21 22  2  0  0  0  0
  4  5  1  0  0  0  0
 22 23  1  0  0  0  0
 11 12  2  0  0  0  0
 23 24  2  0  0  0  0
 24 19  1  0  0  0  0
  2 19  1  0  0  0  0
 12  7  1  0  0  0  0
  6 25  1  0  0  0  0
  4  7  1  0  0  0  0
  5 26  1  0  0  0  0
  5  6  2  0  0  0  0
 26 27  2  0  0  0  0
 26 28  1  0  0  0  0
 13 14  2  0  0  0  0
 28 29  1  0  0  0  0
  1  2  1  0  0  0  0
 25 30  1  0  0  0  0
 14 15  1  0  0  0  0
 30 31  2  0  0  0  0
  7  8  2  0  0  0  0
 31 32  1  0  0  0  0
 15 16  2  0  0  0  0
 32 33  2  0  0  0  0
  1  6  1  0  0  0  0
 33 34  1  0  0  0  0
 16 17  1  0  0  0  0
 34 35  2  0  0  0  0
 35 30  1  0  0  0  0
  8  9  1  0  0  0  0
 22 36  1  0  0  0  0
 17 18  2  0  0  0  0
 10 37  1  0  0  0  0
 18 13  1  0  0  0  0
 16 38  1  0  0  0  0
  3 13  1  0  0  0  0
 38 39  1  0  0  0  0
  2  3  1  0  0  0  0
 33 40  1  0  0  0  0
  9 10  2  0  0  0  0
 40 41  1  0  0  0  0
M  END
>  <Mol Weight>
556.5991

>  <Formula>
C33H30F2N2O4

>  <chembl_id>
CHEMBL505126

$$$$

  Mrv0541 06201412482D          

 45 51  0  0  0  0            999 V2000
    1.4902    0.3709    0.0000 C   0  0  0  0  0  0  0  0  0  0  0  0
    1.4891   -0.4565    0.0000 C   0  0  0  0  0  0  0  0  0  0  0  0
    2.2039   -0.8694    0.0000 C   0  0  0  0  0  0  0  0  0  0  0  0
    2.2021    0.7836    0.0000 C   0  0  0  0  0  0  0  0  0  0  0  0
    2.9175    0.3745    0.0000 C   0  0  0  0  0  0  0  0  0  0  0  0
    2.9224   -0.4565    0.0000 C   0  0  0  0  0  0  0  0  0  0  0  0
    3.7142   -0.7087    0.0000 N   0  0  0  0  0  0  0  0  0  0  0  0
    3.7063    0.6359    0.0000 C   0  0  0  0  0  0  0  0  0  0  0  0
    4.1965   -0.0327    0.0000 C   0  0  0  0  0  0  0  0  0  0  0  0
    5.3516    0.8172    0.0000 C   0  0  0  0  0  0  0  0  0  0  0  0
    5.0195    0.0602    0.0000 C   0  0  0  0  0  0  0  0  0  0  0  0
    5.6368   -0.4896    0.0000 N   0  0  0  0  0  0  0  0  0  0  0  0
    6.1741    0.7352    0.0000 C   0  0  0  0  0  0  0  0  0  0  0  0
    6.3468   -0.0697    0.0000 C   0  0  0  0  0  0  0  0  0  0  0  0
    7.1287   -0.3211    0.0000 C   0  0  0  0  0  0  0  0  0  0  0  0
    7.7387    0.2314    0.0000 C   0  0  0  0  0  0  0  0  0  0  0  0
    7.5615    1.0385    0.0000 C   0  0  0  0  0  0  0  0  0  0  0  0
    6.7798    1.2862    0.0000 C   0  0  0  0  0  0  0  0  0  0  0  0
    3.9748   -1.4915    0.0000 C   0  0  0  0  0  0  0  0  0  0  0  0
    3.4273   -2.1086    0.0000 C   0  0  0  0  0  0  0  0  0  0  0  0
    3.6879   -2.8913    0.0000 N   0  0  0  0  0  0  0  0  0  0  0  0
    2.6191   -1.9429    0.0000 O   0  0  0  0  0  0  0  0  0  0  0  0
    4.4961   -3.0570    0.0000 C   0  0  0  0  0  0  0  0  0  0  0  0
    5.0436   -2.4399    0.0000 C   0  0  0  0  0  0  0  0  0  0  0  0
    4.7830   -1.6572    0.0000 O   0  0  0  0  0  0  0  0  0  0  0  0
    4.0360    1.3916    0.0000 C   0  0  0  0  0  0  0  0  0  0  0  0
    4.8543    1.4828    0.0000 C   0  0  0  0  0  0  0  0  0  0  0  0
    5.0204    2.2892    0.0000 C   0  0  0  0  0  0  0  0  0  0  0  0
    4.3048    2.6965    0.0000 N   0  0  0  0  0  0  0  0  0  0  0  0
    3.6965    2.1417    0.0000 C   0  0  0  0  0  0  0  0  0  0  0  0
    4.2134    3.5164    0.0000 C   0  0  0  0  0  0  0  0  0  0  0  0
    5.7720    2.6294    0.0000 O   0  0  0  0  0  0  0  0  0  0  0  0
    2.8884    2.3081    0.0000 O   0  0  0  0  0  0  0  0  0  0  0  0
    4.7567   -3.8398    0.0000 C   0  0  0  0  0  0  0  0  0  0  0  0
    5.8518   -2.6056    0.0000 N   0  0  0  0  0  0  0  0  0  0  0  0
    6.1085   -3.3890    0.0000 C   0  0  0  0  0  0  0  0  0  0  0  0
    6.9127   -3.5559    0.0000 C   0  0  0  0  0  0  0  0  0  0  0  0
    7.4637   -2.9414    0.0000 N   0  0  0  0  0  0  0  0  0  0  0  0
    7.2047   -2.1571    0.0000 C   0  0  0  0  0  0  0  0  0  0  0  0
    6.3947   -1.9873    0.0000 C   0  0  0  0  0  0  0  0  0  0  0  0
    4.2091   -4.4568    0.0000 C   0  0  0  0  0  0  0  0  0  0  0  0
    4.4697   -5.2396    0.0000 C   0  0  0  0  0  0  0  0  0  0  0  0
    3.4009   -4.2911    0.0000 C   0  0  0  0  0  0  0  0  0  0  0  0
    8.2713   -3.1102    0.0000 C   0  0  0  0  0  0  0  0  0  0  0  0
    8.5289   -3.8939    0.0000 C   0  0  0  0  0  0  0  0  0  0  0  0
 19 20  1  0  0  0  0
  9 11  1  0  0  0  0
 20 21  1  0  0  0  0
 10 27  1  0  0  0  0
 20 22  2  0  0  0  0
 26  8  1  0  0  0  0
 21 23  1  0  0  0  0
 10 11  2  0  0  0  0
 23 24  1  0  0  0  0
  4  1  1  0  0  0  0
 24 25  2  0  0  0  0
 26 27  2  0  0  0  0
  5  6  1  0  0  0  0
 11 12  1  0  0  0  0
 12 14  1  0  0  0  0
 13 10  1  0  0  0  0
 27 28  1  0  0  0  0
 28 29  1  0  0  0  0
 29 30  1  0  0  0  0
 30 26  1  0  0  0  0
  2  3  1  0  0  0  0
 29 31  1  0  0  0  0
  3  6  2  0  0  0  0
 28 32  2  0  0  0  0
 13 14  2  0  0  0  0
 30 33  2  0  0  0  0
  6  7  1  0  0  0  0
 23 34  1  0  0  0  0
 14 15  1  0  0  0  0
 24 35  1  0  0  0  0
 35 36  1  0  0  0  0
  7  9  1  0  0  0  0
 15 16  2  0  0  0  0
  8  5  1  0  0  0  0
 16 17  1  0  0  0  0
  1  2  2  0  0  0  0
 35 40  1  0  0  0  0
 36 37  1  0  0  0  0
 37 38  1  0  0  0  0
 38 39  1  0  0  0  0
 39 40  1  0  0  0  0
 17 18  2  0  0  0  0
 34 41  1  0  0  0  0
 18 13  1  0  0  0  0
 41 42  1  0  0  0  0
  5  4  2  0  0  0  0
 41 43  1  0  0  0  0
  7 19  1  0  0  0  0
 38 44  1  0  0  0  0
  8  9  2  0  0  0  0
 44 45  1  0  0  0  0
M  END
>  <Mol Weight>
606.714

>  <Formula>
C35H38N6O4

>  <chembl_id>
CHEMBL505127

$$$$

  Mrv0541 06201412482D          

 42 46  0  0  0  0            999 V2000
    8.7807   -3.2359    0.0000 N   0  0  0  0  0  0  0  0  0  0  0  0
    9.2692   -3.9123    0.0000 C   0  0  0  0  0  0  0  0  0  0  0  0
    8.7723   -4.5845    0.0000 O   0  0  0  0  0  0  0  0  0  0  0  0
    7.9832   -3.4947    0.0000 C   0  0  0  0  0  0  0  0  0  0  0  0
   12.5677   -3.9123    0.0000 C   0  0  0  0  0  0  0  0  0  0  0  0
   -1.3110   -2.2714    0.0000 C   0  0  0  0  0  0  0  0  0  0  0  0
    7.9832   -4.3256    0.0000 C   0  0  0  0  0  0  0  0  0  0  0  0
   -0.5970   -1.8538    0.0000 N   0  0  0  0  0  0  0  0  0  0  0  0
    0.1169   -2.2589    0.0000 C   0  0  0  0  0  0  0  0  0  0  0  0
    1.5532   -2.2589    0.0000 N   0  0  0  0  0  0  0  0  0  0  0  0
    2.9812   -3.0856    0.0000 N   0  0  0  0  0  0  0  0  0  0  0  0
    7.2692   -3.0856    0.0000 C   0  0  0  0  0  0  0  0  0  0  0  0
   10.0959   -3.9123    0.0000 C   0  0  0  0  0  0  0  0  0  0  0  0
   11.7410   -3.9123    0.0000 C   0  0  0  0  0  0  0  0  0  0  0  0
    0.8309   -1.8455    0.0000 C   0  0  0  0  0  0  0  0  0  0  0  0
   -1.3110   -3.0981    0.0000 C   0  0  0  0  0  0  0  0  0  0  0  0
   -2.0292   -1.8580    0.0000 C   0  0  0  0  0  0  0  0  0  0  0  0
    0.1169   -3.0856    0.0000 O   0  0  0  0  0  0  0  0  0  0  0  0
    7.2692   -4.7390    0.0000 C   0  0  0  0  0  0  0  0  0  0  0  0
   10.5009   -3.1983    0.0000 C   0  0  0  0  0  0  0  0  0  0  0  0
   10.5009   -4.6263    0.0000 C   0  0  0  0  0  0  0  0  0  0  0  0
   11.3276   -4.6263    0.0000 C   0  0  0  0  0  0  0  0  0  0  0  0
   11.3276   -3.1983    0.0000 C   0  0  0  0  0  0  0  0  0  0  0  0
   12.9810   -4.6346    0.0000 F   0  0  0  0  0  0  0  0  0  0  0  0
   12.9810   -3.1983    0.0000 F   0  0  0  0  0  0  0  0  0  0  0  0
   12.3548   -4.7139    0.0000 F   0  0  0  0  0  0  0  0  0  0  0  0
    3.6994   -3.4989    0.0000 C   0  0  0  0  0  0  0  0  0  0  0  0
    6.5636   -3.4989    0.0000 C   0  0  0  0  0  0  0  0  0  0  0  0
    5.8413   -3.0856    0.0000 O   0  0  0  0  0  0  0  0  0  0  0  0
    2.2589   -3.4989    0.0000 C   0  0  0  0  0  0  0  0  0  0  0  0
    1.5532   -3.0856    0.0000 C   0  0  0  0  0  0  0  0  0  0  0  0
    2.9812   -2.2589    0.0000 C   0  0  0  0  0  0  0  0  0  0  0  0
    2.2589   -1.8455    0.0000 C   0  0  0  0  0  0  0  0  0  0  0  0
    4.4133   -3.0856    0.0000 C   0  0  0  0  0  0  0  0  0  0  0  0
    5.1273   -3.4989    0.0000 C   0  0  0  0  0  0  0  0  0  0  0  0
    6.5553   -4.3256    0.0000 C   0  0  0  0  0  0  0  0  0  0  0  0
    4.4133   -2.2589    0.0000 O   0  0  0  0  0  0  0  0  0  0  0  0
   -2.7432   -3.0981    0.0000 C   0  0  0  0  0  0  0  0  0  0  0  0
   -2.0292   -3.5115    0.0000 C   0  0  0  0  0  0  0  0  0  0  0  0
   -2.7432   -2.2714    0.0000 C   0  0  0  0  0  0  0  0  0  0  0  0
   -2.0375   -1.0313    0.0000 C   0  0  0  0  0  0  0  0  0  0  0  0
   -0.5970   -3.5115    0.0000 C   0  0  0  0  0  0  0  0  0  0  0  0
  2  1  2  0  0  0  0
  3  2  1  0  0  0  0
  4  1  1  0  0  0  0
  5 14  1  0  0  0  0
  6  8  1  0  0  0  0
  7  4  1  0  0  0  0
  8  9  1  0  0  0  0
  9 15  1  0  0  0  0
 10 33  1  0  0  0  0
 11 27  1  0  0  0  0
 12  4  2  0  0  0  0
 13  2  1  0  0  0  0
 14 22  2  0  0  0  0
 15 10  1  0  0  0  0
 16  6  1  0  0  0  0
 17  6  2  0  0  0  0
 18  9  2  0  0  0  0
 19  7  2  0  0  0  0
 20 13  1  0  0  0  0
 21 13  2  0  0  0  0
 22 21  1  0  0  0  0
 23 20  2  0  0  0  0
 24  5  1  0  0  0  0
 25  5  1  0  0  0  0
 26  5  1  0  0  0  0
 27 34  1  0  0  0  0
 28 12  1  0  0  0  0
 29 28  1  0  0  0  0
 30 11  1  0  0  0  0
 31 30  1  0  0  0  0
 32 11  1  0  0  0  0
 33 32  1  0  0  0  0
 34 35  1  0  0  0  0
 35 29  1  0  0  0  0
 36 28  2  0  0  0  0
 37 34  1  0  0  0  0
 38 40  2  0  0  0  0
 39 16  2  0  0  0  0
 40 17  1  0  0  0  0
 41 17  1  0  0  0  0
 42 16  1  0  0  0  0
  7  3  1  0  0  0  0
 19 36  1  0  0  0  0
 23 14  1  0  0  0  0
 10 31  1  0  0  0  0
 39 38  1  0  0  0  0
M  END
>  <Mol Weight>
582.6133

>  <Formula>
C31H33F3N4O4

>  <chembl_id>
CHEMBL158217

$$$$

  Mrv0541 06201412482D          

 44 49  0  0  0  0            999 V2000
    6.4692   -9.3749    0.0000 C   0  0  1  0  0  0  0  0  0  0  0  0
    6.0253  -10.1148    0.0000 C   0  0  0  0  0  0  0  0  0  0  0  0
    6.6296  -10.7191    0.0000 C   0  0  0  0  0  0  0  0  0  0  0  0
    7.3947  -10.3318    0.0000 C   0  0  0  0  0  0  0  0  0  0  0  0
    7.2672   -9.4888    0.0000 N   0  0  0  0  0  0  0  0  0  0  0  0
    2.2510   -8.3637    0.0000 C   0  0  0  0  0  0  0  0  0  0  0  0
    2.2490   -9.1890    0.0000 C   0  0  0  0  0  0  0  0  0  0  0  0
    2.9622   -9.6024    0.0000 C   0  0  0  0  0  0  0  0  0  0  0  0
    3.6815   -9.1882    0.0000 C   0  0  0  0  0  0  0  0  0  0  0  0
    3.6809   -8.3572    0.0000 C   0  0  0  0  0  0  0  0  0  0  0  0
    2.9635   -7.9506    0.0000 C   0  0  0  0  0  0  0  0  0  0  0  0
    4.3841   -7.9431    0.0000 C   0  0  0  0  0  0  0  0  0  0  0  0
    5.1033   -8.3546    0.0000 C   0  0  1  0  0  0  0  0  0  0  0  0
    5.8157   -7.9360    0.0000 C   0  0  0  0  0  0  0  0  0  0  0  0
    5.8089   -7.1105    0.0000 N   0  0  0  0  0  0  0  0  0  0  0  0
    5.1056   -9.1755    0.0000 N   0  0  0  0  0  0  0  0  0  0  0  0
    5.8247   -9.5824    0.0000 C   0  0  0  0  0  0  0  0  0  0  0  0
    6.5214   -6.7009    0.0000 C   0  0  2  0  0  0  0  0  0  0  0  0
    6.5192   -5.8755    0.0000 C   0  0  0  0  0  0  0  0  0  0  0  0
    7.2405   -7.1033    0.0000 C   0  0  0  0  0  0  0  0  0  0  0  0
    7.2427   -7.9288    0.0000 N   0  0  0  0  0  0  0  0  0  0  0  0
    7.9530   -6.6893    0.0000 O   0  0  0  0  0  0  0  0  0  0  0  0
    7.2316   -5.4569    0.0000 C   0  0  0  0  0  0  0  0  0  0  0  0
    7.9818   -5.7946    0.0000 C   0  0  0  0  0  0  0  0  0  0  0  0
    7.3070   -4.6418    0.0000 C   0  0  0  0  0  0  0  0  0  0  0  0
    8.1168   -4.4662    0.0000 C   0  0  0  0  0  0  0  0  0  0  0  0
    8.3663   -3.6838    0.0000 C   0  0  0  0  0  0  0  0  0  0  0  0
    7.8124   -3.0713    0.0000 C   0  0  0  0  0  0  0  0  0  0  0  0
    7.0036   -3.2544    0.0000 C   0  0  0  0  0  0  0  0  0  0  0  0
    6.7557   -4.0364    0.0000 C   0  0  0  0  0  0  0  0  0  0  0  0
    7.9573   -8.3402    0.0000 C   0  0  2  0  0  0  0  0  0  0  0  0
    7.9640   -9.1613    0.0000 C   0  0  0  0  0  0  0  0  0  0  0  0
    8.6697   -7.9217    0.0000 C   0  0  0  0  0  0  0  0  0  0  0  0
    9.3797   -8.3331    0.0000 C   0  0  0  0  0  0  0  0  0  0  0  0
    9.3802   -9.1539    0.0000 C   0  0  0  0  0  0  0  0  0  0  0  0
   10.0979   -9.5608    0.0000 C   0  0  0  0  0  0  0  0  0  0  0  0
   10.8120   -9.1466    0.0000 C   0  0  0  0  0  0  0  0  0  0  0  0
   10.8053   -8.3187    0.0000 C   0  0  0  0  0  0  0  0  0  0  0  0
   10.0866   -7.9089    0.0000 C   0  0  0  0  0  0  0  0  0  0  0  0
    8.6611   -9.6020    0.0000 O   0  0  0  0  0  0  0  0  0  0  0  0
    5.6225  -10.3800    0.0000 O   0  0  0  0  0  0  0  0  0  0  0  0
    7.0076   -8.7656    0.0000 H   0  0  0  0  0  0  0  0  0  0  0  0
    6.5301   -8.3438    0.0000 O   0  0  0  0  0  0  0  0  0  0  0  0
    8.5315   -5.1794    0.0000 N   0  0  0  0  0  0  0  0  0  0  0  0
  1  2  1  0  0  0  0
  2  3  1  0  0  0  0
  3  4  1  0  0  0  0
  4  5  1  0  0  0  0
  5  1  1  0  0  0  0
  6  7  2  0  0  0  0
  7  8  1  0  0  0  0
  8  9  2  0  0  0  0
  9 10  1  0  0  0  0
 10 11  2  0  0  0  0
 11  6  1  0  0  0  0
 10 12  1  0  0  0  0
 13 12  1  1  0  0  0
 13 14  1  0  0  0  0
 14 15  1  0  0  0  0
 13 16  1  0  0  0  0
 16 17  1  0  0  0  0
 17  1  1  0  0  0  0
 15 18  1  0  0  0  0
 18 19  1  6  0  0  0
 18 20  1  0  0  0  0
 20 21  1  0  0  0  0
 20 22  2  0  0  0  0
 19 23  1  0  0  0  0
 23 24  2  0  0  0  0
 25 23  1  0  0  0  0
 25 26  2  0  0  0  0
 26 27  1  0  0  0  0
 27 28  2  0  0  0  0
 28 29  1  0  0  0  0
 29 30  2  0  0  0  0
 30 25  1  0  0  0  0
 21 31  1  0  0  0  0
 31 32  1  0  0  0  0
 31 33  1  1  0  0  0
 33 34  1  0  0  0  0
 34 35  2  0  0  0  0
 35 36  1  0  0  0  0
 36 37  2  0  0  0  0
 37 38  1  0  0  0  0
 38 39  2  0  0  0  0
 39 34  1  0  0  0  0
 32  5  1  0  0  0  0
 32 40  2  0  0  0  0
 17 41  2  0  0  0  0
  1 42  1  1  0  0  0
 14 43  2  0  0  0  0
 24 44  1  0  0  0  0
 44 26  1  0  0  0  0
M  END
>  <Mol Weight>
577.6728

>  <Formula>
C34H35N5O4

>  <chembl_id>
CHEMBL502411

$$$$

  Mrv0541 06201412482D          

 41 45  0  0  0  0            999 V2000
    9.9486  -14.4041    0.0000 C   0  0  0  0  0  0  0  0  0  0  0  0
    9.9474  -15.2315    0.0000 C   0  0  0  0  0  0  0  0  0  0  0  0
   10.6622  -15.6444    0.0000 C   0  0  0  0  0  0  0  0  0  0  0  0
   10.6604  -13.9914    0.0000 C   0  0  0  0  0  0  0  0  0  0  0  0
   11.3758  -14.4005    0.0000 C   0  0  0  0  0  0  0  0  0  0  0  0
   11.3766  -15.2273    0.0000 C   0  0  0  0  0  0  0  0  0  0  0  0
   12.0919  -15.6383    0.0000 N   0  0  0  0  0  0  0  0  0  0  0  0
   12.8069  -15.2235    0.0000 C   0  0  0  0  0  0  0  0  0  0  0  0
   12.8021  -14.3936    0.0000 C   0  0  0  0  0  0  0  0  0  0  0  0
   12.0862  -13.9863    0.0000 C   0  0  0  0  0  0  0  0  0  0  0  0
   13.5141  -13.9767    0.0000 C   0  0  0  0  0  0  0  0  0  0  0  0
   14.2250  -13.5583    0.0000 N   0  0  0  0  0  0  0  0  0  0  0  0
    9.2340  -13.9918    0.0000 O   0  0  0  0  0  0  0  0  0  0  0  0
    9.2326  -15.6434    0.0000 O   0  0  0  0  0  0  0  0  0  0  0  0
    8.5185  -15.2304    0.0000 C   0  0  0  0  0  0  0  0  0  0  0  0
    8.5191  -14.4054    0.0000 C   0  0  0  0  0  0  0  0  0  0  0  0
    7.8037  -15.6423    0.0000 C   0  0  0  0  0  0  0  0  0  0  0  0
    7.0895  -15.2292    0.0000 C   0  0  0  0  0  0  0  0  0  0  0  0
    6.3747  -15.6412    0.0000 N   0  0  0  0  0  0  0  0  0  0  0  0
   12.0819  -13.1614    0.0000 N   0  0  0  0  0  0  0  0  0  0  0  0
   12.7941  -12.7451    0.0000 C   0  0  0  0  0  0  0  0  0  0  0  0
   13.5098  -13.1593    0.0000 C   0  0  0  0  0  0  0  0  0  0  0  0
   14.2216  -12.7437    0.0000 C   0  0  0  0  0  0  0  0  0  0  0  0
   14.2176  -11.9178    0.0000 C   0  0  0  0  0  0  0  0  0  0  0  0
   13.4960  -11.5093    0.0000 C   0  0  0  0  0  0  0  0  0  0  0  0
   12.7871  -11.9272    0.0000 C   0  0  0  0  0  0  0  0  0  0  0  0
   13.4887  -10.6843    0.0000 Cl  0  0  0  0  0  0  0  0  0  0  0  0
   14.9294  -11.5006    0.0000 S   0  0  0  0  0  0  0  0  0  0  0  0
   15.6466  -11.9083    0.0000 C   0  0  0  0  0  0  0  0  0  0  0  0
   15.7381  -12.7274    0.0000 N   0  0  0  0  0  0  0  0  0  0  0  0
   16.5462  -12.8935    0.0000 C   0  0  0  0  0  0  0  0  0  0  0  0
   16.9540  -12.1763    0.0000 C   0  0  0  0  0  0  0  0  0  0  0  0
   16.3978  -11.5670    0.0000 N   0  0  0  0  0  0  0  0  0  0  0  0
   16.5635  -10.7588    0.0000 C   0  0  0  0  0  0  0  0  0  0  0  0
   16.8868  -13.6450    0.0000 C   0  0  0  0  0  0  0  0  0  0  0  0
   17.7739  -12.0846    0.0000 C   0  0  0  0  0  0  0  0  0  0  0  0
   17.3463  -10.4982    0.0000 C   0  0  0  0  0  0  0  0  0  0  0  0
    5.6195  -15.3086    0.0000 C   0  0  0  0  0  0  0  0  0  0  0  0
    5.0669  -15.9213    0.0000 C   0  0  0  0  0  0  0  0  0  0  0  0
    5.4789  -16.6361    0.0000 C   0  0  0  0  0  0  0  0  0  0  0  0
    6.2860  -16.4651    0.0000 C   0  0  0  0  0  0  0  0  0  0  0  0
 10 20  1  0  0  0  0
  9 10  2  0  0  0  0
 20 21  1  0  0  0  0
 10  5  1  0  0  0  0
 21 22  2  0  0  0  0
 22 23  1  0  0  0  0
  9 11  1  0  0  0  0
 23 24  2  0  0  0  0
  2  3  1  0  0  0  0
 24 25  1  0  0  0  0
 11 12  3  0  0  0  0
 25 26  2  0  0  0  0
 26 21  1  0  0  0  0
  5  6  1  0  0  0  0
 25 27  1  0  0  0  0
  1 13  1  0  0  0  0
 24 28  1  0  0  0  0
 13 16  1  0  0  0  0
 28 29  1  0  0  0  0
 29 30  2  0  0  0  0
  3  6  2  0  0  0  0
  2 14  1  0  0  0  0
  6  7  1  0  0  0  0
 14 15  1  0  0  0  0
 30 31  1  0  0  0  0
 31 32  2  0  0  0  0
 32 33  1  0  0  0  0
 33 29  1  0  0  0  0
  1  2  2  0  0  0  0
 33 34  1  0  0  0  0
  7  8  2  0  0  0  0
 31 35  1  0  0  0  0
 15 17  1  0  0  0  0
 32 36  1  0  0  0  0
  5  4  2  0  0  0  0
 34 37  1  0  0  0  0
 19 38  1  0  0  0  0
 17 18  1  0  0  0  0
  8  9  1  0  0  0  0
 18 19  1  0  0  0  0
  4  1  1  0  0  0  0
 38 39  1  0  0  0  0
 39 40  1  0  0  0  0
 40 41  1  0  0  0  0
 41 19  1  0  0  0  0
M  END
>  <Mol Weight>
591.167

>  <Formula>
C31H35ClN6O2S

>  <chembl_id>
CHEMBL502423

$$$$

  Mrv0541 06201412482D          

 43 49  0  0  0  0            999 V2000
   13.8302  -17.9638    0.0000 C   0  0  0  0  0  0  0  0  0  0  0  0
   14.5423  -18.3722    0.0000 C   0  0  0  0  0  0  0  0  0  0  0  0
   15.2543  -17.1388    0.0000 C   0  0  2  0  0  0  0  0  0  0  0  0
   15.2554  -17.9638    0.0000 C   0  0  1  0  0  0  0  0  0  0  0  0
   15.9665  -18.3732    0.0000 C   0  0  0  0  0  0  0  0  0  0  0  0
   16.6811  -17.9620    0.0000 C   0  0  2  0  0  0  0  0  0  0  0  0
   15.9644  -16.7230    0.0000 C   0  0  2  0  0  0  0  0  0  0  0  0
   16.6757  -17.1393    0.0000 C   0  0  2  0  0  0  0  0  0  0  0  0
   16.6835  -15.4938    0.0000 C   0  0  0  0  0  0  0  0  0  0  0  0
   15.9652  -15.9012    0.0000 C   0  0  0  0  0  0  0  0  0  0  0  0
   17.3949  -15.9101    0.0000 C   0  0  1  0  0  0  0  0  0  0  0  0
   18.8014  -16.7482    0.0000 C   0  0  0  0  0  0  0  0  0  0  0  0
   18.8120  -15.9282    0.0000 O   0  0  0  0  0  0  0  0  0  0  0  0
   18.1064  -15.5068    0.0000 C   0  0  2  0  0  0  0  0  0  0  0  0
   18.1157  -14.6855    0.0000 C   0  0  0  0  0  0  0  0  0  0  0  0
   18.7887  -14.2082    0.0000 C   0  0  0  0  0  0  0  0  0  0  0  0
   18.5427  -13.4207    0.0000 O   0  0  0  0  0  0  0  0  0  0  0  0
   17.7176  -13.4112    0.0000 C   0  0  0  0  0  0  0  0  0  0  0  0
   17.4539  -14.1929    0.0000 C   0  0  0  0  0  0  0  0  0  0  0  0
   19.5100  -17.1710    0.0000 O   0  0  0  0  0  0  0  0  0  0  0  0
   18.0854  -17.1469    0.0000 C   0  0  2  0  0  0  0  0  0  0  0  0
   17.3859  -16.7358    0.0000 C   0  0  2  0  0  0  0  0  0  0  0  0
   17.3797  -17.5471    0.0000 O   0  0  0  0  0  0  0  0  0  0  0  0
   18.7972  -17.5555    0.0000 H   0  0  0  0  0  0  0  0  0  0  0  0
   17.3888  -15.0844    0.0000 C   0  0  0  0  0  0  0  0  0  0  0  0
   17.3967  -18.3728    0.0000 O   0  0  0  0  0  0  0  0  0  0  0  0
   16.6679  -16.3137    0.0000 C   0  0  0  0  0  0  0  0  0  0  0  0
   15.2469  -16.3137    0.0000 C   0  0  0  0  0  0  0  0  0  0  0  0
   13.1163  -18.3774    0.0000 O   0  0  0  0  0  0  0  0  0  0  0  0
   14.1218  -19.0847    0.0000 C   0  0  0  0  0  0  0  0  0  0  0  0
   14.9469  -19.0847    0.0000 C   0  0  0  0  0  0  0  0  0  0  0  0
   15.2511  -18.7847    0.0000 H   0  0  0  0  0  0  0  0  0  0  0  0
   15.9595  -17.5471    0.0000 H   0  0  0  0  0  0  0  0  0  0  0  0
   17.3987  -19.1978    0.0000 C   0  0  0  0  0  0  0  0  0  0  0  0
   18.1143  -19.6085    0.0000 C   0  0  0  0  0  0  0  0  0  0  0  0
   16.6852  -19.6121    0.0000 O   0  0  0  0  0  0  0  0  0  0  0  0
   13.8279  -17.1349    0.0000 C   0  0  0  0  0  0  0  0  0  0  0  0
   14.5423  -16.7220    0.0000 C   0  0  0  0  0  0  0  0  0  0  0  0
   14.3705  -15.9151    0.0000 O   0  0  0  0  0  0  0  0  0  0  0  0
   13.5498  -15.8291    0.0000 C   0  0  0  0  0  0  0  0  0  0  0  0
   13.2146  -16.5829    0.0000 O   0  0  0  0  0  0  0  0  0  0  0  0
   13.5427  -15.0011    0.0000 C   0  0  0  0  0  0  0  0  0  0  0  0
   12.7217  -15.8262    0.0000 C   0  0  0  0  0  0  0  0  0  0  0  0
 19 15  1  0  0  0  0
 14 15  1  1  0  0  0
 12 20  2  0  0  0  0
 22 21  1  0  0  0  0
 22 23  1  1  0  0  0
 21 23  1  0  0  0  0
 37  1  1  0  0  0  0
  7 10  1  0  0  0  0
  8 22  1  0  0  0  0
 11  9  1  0  0  0  0
 21 24  1  6  0  0  0
  9 10  1  0  0  0  0
 11 25  1  6  0  0  0
 11 22  1  0  0  0  0
  6 26  1  6  0  0  0
  1  2  1  0  0  0  0
  8 27  1  1  0  0  0
  2  4  1  0  0  0  0
  3 28  1  1  0  0  0
  3  7  1  0  0  0  0
  1 29  2  0  0  0  0
  4  5  1  0  0  0  0
  2 30  1  0  0  0  0
 11 14  1  0  0  0  0
  2 31  1  0  0  0  0
 21 12  1  0  0  0  0
  4 32  1  6  0  0  0
 12 13  1  0  0  0  0
  7 33  1  6  0  0  0
 13 14  1  0  0  0  0
 26 34  1  0  0  0  0
 15 16  2  0  0  0  0
 34 35  1  0  0  0  0
  5  6  1  0  0  0  0
 34 36  2  0  0  0  0
 37 38  1  0  0  0  0
  6  8  1  0  0  0  0
  7  8  1  0  0  0  0
  3 38  1  0  0  0  0
  3  4  1  0  0  0  0
 16 17  1  0  0  0  0
 38 39  1  0  0  0  0
 39 40  1  0  0  0  0
 40 41  1  0  0  0  0
 41 37  1  0  0  0  0
 17 18  1  0  0  0  0
 40 42  1  0  0  0  0
 18 19  2  0  0  0  0
 40 43  1  0  0  0  0
M  END
>  <Mol Weight>
556.6439

>  <Formula>
C31H40O9

>  <chembl_id>
CHEMBL502429

$$$$

  Mrv0541 06201412482D          

 46 53  0  0  0  0            999 V2000
    5.1687    1.1115    0.0000 C   0  0  0  0  0  0  0  0  0  0  0  0
    5.1675    0.2849    0.0000 N   0  0  0  0  0  0  0  0  0  0  0  0
    5.8816   -0.1276    0.0000 C   0  0  0  0  0  0  0  0  0  0  0  0
    5.8798    1.5239    0.0000 C   0  0  0  0  0  0  0  0  0  0  0  0
    6.5946    1.1152    0.0000 C   0  0  0  0  0  0  0  0  0  0  0  0
    6.5995    0.2848    0.0000 C   0  0  0  0  0  0  0  0  0  0  0  0
    7.3906    0.0329    0.0000 N   0  0  0  0  0  0  0  0  0  0  0  0
    7.3827    1.3762    0.0000 C   0  0  0  0  0  0  0  0  0  0  0  0
    7.8724    0.7084    0.0000 C   0  0  0  0  0  0  0  0  0  0  0  0
    8.6937    0.7991    0.0000 C   0  0  0  0  0  0  0  0  0  0  0  0
    9.0264    1.5574    0.0000 C   0  0  0  0  0  0  0  0  0  0  0  0
    8.5317    2.2255    0.0000 C   0  0  0  0  0  0  0  0  0  0  0  0
    7.7120    2.1313    0.0000 C   0  0  0  0  0  0  0  0  0  0  0  0
    5.8807   -0.9518    0.0000 C   0  0  0  0  0  0  0  0  0  0  0  0
    5.8765   -2.5990    0.0000 C   0  0  1  0  0  0  0  0  0  0  0  0
    6.5926   -2.1889    0.0000 C   0  0  1  0  0  0  0  0  0  0  0  0
    6.5972   -1.3620    0.0000 C   0  0  0  0  0  0  0  0  0  0  0  0
    5.1650   -2.1822    0.0000 C   0  0  2  0  0  0  0  0  0  0  0  0
    5.1654   -1.3619    0.0000 C   0  0  1  0  0  0  0  0  0  0  0  0
    4.4593   -0.9537    0.0000 C   0  0  0  0  0  0  0  0  0  0  0  0
    3.7480   -1.3611    0.0000 C   0  0  0  0  0  0  0  0  0  0  0  0
    3.7475   -2.1814    0.0000 N   0  0  0  0  0  0  0  0  0  0  0  0
    4.4583   -2.5942    0.0000 C   0  0  0  0  0  0  0  0  0  0  0  0
    3.0305   -2.5893    0.0000 C   0  0  0  0  0  0  0  0  0  0  0  0
    3.2969   -3.2427    0.0000 C   0  0  0  0  0  0  0  0  0  0  0  0
    4.1711   -2.6808    0.0000 C   0  0  0  0  0  0  0  0  0  0  0  0
    4.6374   -3.6174    0.0000 C   0  0  0  0  0  0  0  0  0  0  0  0
    5.5115   -2.9930    0.0000 C   0  0  0  0  0  0  0  0  0  0  0  0
    6.3523   -2.9930    0.0000 C   0  0  0  0  0  0  0  0  0  0  0  0
    7.4513   -3.5634    0.0000 C   0  0  0  0  0  0  0  0  0  0  0  0
    8.0341   -2.9764    0.0000 C   0  0  0  0  0  0  0  0  0  0  0  0
    4.7455   -2.8931    0.0000 C   0  0  0  0  0  0  0  0  0  0  0  0
    4.9614   -4.9510    0.0000 C   0  0  0  0  0  0  0  0  0  0  0  0
    4.7792   -4.2356    0.0000 C   0  0  0  0  0  0  0  0  0  0  0  0
    5.1542   -3.6042    0.0000 C   0  0  2  0  0  0  0  0  0  0  0  0
    5.5931   -5.3260    0.0000 C   0  0  0  0  0  0  0  0  0  0  0  0
    6.3083   -5.1438    0.0000 C   0  0  0  0  0  0  0  0  0  0  0  0
    6.6833   -4.5122    0.0000 C   0  0  0  0  0  0  0  0  0  0  0  0
    6.5925   -3.7676    0.0000 C   0  0  0  0  0  0  0  0  0  0  0  0
    5.8695   -3.4218    0.0000 N   0  0  0  0  0  0  0  0  0  0  0  0
    5.1672   -0.3621    0.0000 H   0  0  0  0  0  0  0  0  0  0  0  0
    5.4883   -6.0531    0.0000 O   0  0  0  0  0  0  0  0  0  0  0  0
    7.3014   -1.7691    0.0000 O   0  0  0  0  0  0  0  0  0  0  0  0
    8.8597    2.9816    0.0000 O   0  0  0  0  0  0  0  0  0  0  0  0
    4.1544   -3.5971    0.0000 H   0  0  0  0  0  0  0  0  0  0  0  0
    6.7393   -3.1041    0.0000 H   0  0  0  0  0  0  0  0  0  0  0  0
  9 10  1  0  0  0  0
  5  6  1  0  0  0  0
 18 23  1  1  0  0  0
 19 20  1  0  0  0  0
 20 21  1  0  0  0  0
 21 22  1  0  0  0  0
 22 23  1  0  0  0  0
 10 11  2  0  0  0  0
 22 24  1  0  0  0  0
 24 25  1  0  0  0  0
 11 12  1  0  0  0  0
 25 26  1  0  0  0  0
  2  3  1  0  0  0  0
 26 27  1  0  0  0  0
 12 13  2  0  0  0  0
 27 28  1  0  0  0  0
 13  8  1  0  0  0  0
 28 29  2  0  0  0  0
  3  6  2  0  0  0  0
 29 30  1  0  0  0  0
  3 14  1  0  0  0  0
 30 31  1  0  0  0  0
 16 31  1  0  0  0  0
 14 19  1  0  0  0  0
 18 32  1  0  0  0  0
 15 40  1  0  0  0  0
 32 35  1  0  0  0  0
  6  7  1  0  0  0  0
  7  9  1  0  0  0  0
  8  5  1  0  0  0  0
 14 17  2  0  0  0  0
 18 15  1  0  0  0  0
 15 16  1  0  0  0  0
 16 17  1  0  0  0  0
 18 19  1  0  0  0  0
 33 34  1  0  0  0  0
 35 34  1  0  0  0  0
 33 36  1  0  0  0  0
 36 37  1  0  0  0  0
 37 38  1  0  0  0  0
 38 39  1  0  0  0  0
 39 40  1  0  0  0  0
 40 35  1  0  0  0  0
  1  2  2  0  0  0  0
 19 41  1  6  0  0  0
  5  4  2  0  0  0  0
 36 42  2  0  0  0  0
  8  9  2  0  0  0  0
 16 43  1  6  0  0  0
  4  1  1  0  0  0  0
 12 44  1  0  0  0  0
 35 45  1  6  0  0  0
 15 46  1  1  0  0  0
M  END
>  <Mol Weight>
580.7596

>  <Formula>
C36H44N4O3

>  <chembl_id>
CHEMBL502434

$$$$

  Mrv0541 06201412482D          

 46 52  0  0  0  0            999 V2000
   15.4876  -10.9598    0.0000 C   0  0  0  0  0  0  0  0  0  0  0  0
   15.4876  -11.7835    0.0000 N   0  0  0  0  0  0  0  0  0  0  0  0
   16.1988  -12.1933    0.0000 C   0  0  1  0  0  0  0  0  0  0  0  0
   16.1988  -10.5416    0.0000 C   0  0  0  0  0  0  0  0  0  0  0  0
   16.9140  -10.9598    0.0000 C   0  0  0  0  0  0  0  0  0  0  0  0
   16.9116  -11.7849    0.0000 C   0  0  0  0  0  0  0  0  0  0  0  0
   17.6253  -12.1949    0.0000 C   0  0  0  0  0  0  0  0  0  0  0  0
   18.3379  -11.7854    0.0000 C   0  0  0  0  0  0  0  0  0  0  0  0
   18.3343  -10.9555    0.0000 C   0  0  0  0  0  0  0  0  0  0  0  0
   17.6240  -10.5471    0.0000 C   0  0  0  0  0  0  0  0  0  0  0  0
   19.0514  -10.5402    0.0000 O   0  0  0  0  0  0  0  0  0  0  0  0
   19.0474   -9.7122    0.0000 C   0  0  0  0  0  0  0  0  0  0  0  0
   16.2006  -13.0213    0.0000 C   0  0  0  0  0  0  0  0  0  0  0  0
   16.9163  -13.4317    0.0000 C   0  0  0  0  0  0  0  0  0  0  0  0
   16.9152  -14.2566    0.0000 C   0  0  0  0  0  0  0  0  0  0  0  0
   17.6339  -14.6710    0.0000 C   0  0  0  0  0  0  0  0  0  0  0  0
   18.3493  -14.2574    0.0000 C   0  0  0  0  0  0  0  0  0  0  0  0
   18.3435  -13.4229    0.0000 C   0  0  0  0  0  0  0  0  0  0  0  0
   17.6281  -13.0184    0.0000 C   0  0  0  0  0  0  0  0  0  0  0  0
   19.0659  -14.6663    0.0000 O   0  0  0  0  0  0  0  0  0  0  0  0
   19.0694  -15.4943    0.0000 C   0  0  0  0  0  0  0  0  0  0  0  0
   19.0600  -13.0091    0.0000 O   0  0  0  0  0  0  0  0  0  0  0  0
   19.8849  -12.9975    0.0000 C   0  0  0  0  0  0  0  0  0  0  0  0
   23.9890  -11.5082    0.0000 C   0  0  0  0  0  0  0  0  0  0  0  0
   23.5853  -12.2294    0.0000 N   0  0  0  0  0  0  0  0  0  0  0  0
   22.7647  -12.2402    0.0000 C   0  0  1  0  0  0  0  0  0  0  0  0
   23.5664  -10.7963    0.0000 C   0  0  0  0  0  0  0  0  0  0  0  0
   22.7432  -10.8159    0.0000 C   0  0  0  0  0  0  0  0  0  0  0  0
   22.3429  -11.5359    0.0000 C   0  0  0  0  0  0  0  0  0  0  0  0
   21.5195  -11.5476    0.0000 C   0  0  0  0  0  0  0  0  0  0  0  0
   21.0969  -10.8441    0.0000 C   0  0  0  0  0  0  0  0  0  0  0  0
   21.4990  -10.1215    0.0000 C   0  0  0  0  0  0  0  0  0  0  0  0
   22.3220  -10.1094    0.0000 C   0  0  0  0  0  0  0  0  0  0  0  0
   21.0771   -9.4090    0.0000 O   0  0  0  0  0  0  0  0  0  0  0  0
   20.2678  -10.8537    0.0000 O   0  0  0  0  0  0  0  0  0  0  0  0
   21.4843   -8.6897    0.0000 C   0  0  0  0  0  0  0  0  0  0  0  0
   24.0092  -12.9407    0.0000 C   0  0  0  0  0  0  0  0  0  0  0  0
   22.3614  -12.9641    0.0000 C   0  0  0  0  0  0  0  0  0  0  0  0
   21.5344  -12.9768    0.0000 C   0  0  0  0  0  0  0  0  0  0  0  0
   21.1366  -13.6936    0.0000 C   0  0  0  0  0  0  0  0  0  0  0  0
   20.3073  -13.7089    0.0000 C   0  0  0  0  0  0  0  0  0  0  0  0
   20.2942  -12.2728    0.0000 C   0  0  0  0  0  0  0  0  0  0  0  0
   21.1180  -12.2650    0.0000 C   0  0  0  0  0  0  0  0  0  0  0  0
   19.0535  -12.1963    0.0000 O   0  0  0  0  0  0  0  0  0  0  0  0
   23.1708  -12.9500    0.0000 H   0  0  0  0  0  0  0  0  0  0  0  0
   15.4792  -12.6000    0.0000 H   0  0  0  0  0  0  0  0  0  0  0  0
  1  4  1  0  0  0  0
  2  3  1  0  0  0  0
  3  6  1  0  0  0  0
  5  4  1  0  0  0  0
  5  6  2  0  0  0  0
  6  7  1  0  0  0  0
  7  8  2  0  0  0  0
  8  9  1  0  0  0  0
  9 10  2  0  0  0  0
 10  5  1  0  0  0  0
  9 11  1  0  0  0  0
 11 12  1  0  0  0  0
  3 13  1  0  0  0  0
 13 14  1  0  0  0  0
 14 15  2  0  0  0  0
 15 16  1  0  0  0  0
 16 17  2  0  0  0  0
 17 18  1  0  0  0  0
 18 19  2  0  0  0  0
 19 14  1  0  0  0  0
 17 20  1  0  0  0  0
 20 21  1  0  0  0  0
 18 22  1  0  0  0  0
 22 23  1  0  0  0  0
 24 25  1  0  0  0  0
 24 27  1  0  0  0  0
 25 26  1  0  0  0  0
 26 29  1  0  0  0  0
 28 27  1  0  0  0  0
 28 29  2  0  0  0  0
 29 30  1  0  0  0  0
 30 31  2  0  0  0  0
 31 32  1  0  0  0  0
 32 33  2  0  0  0  0
 33 28  1  0  0  0  0
 32 34  1  0  0  0  0
 31 35  1  0  0  0  0
 34 36  1  0  0  0  0
 25 37  1  0  0  0  0
 26 38  1  0  0  0  0
 38 39  1  0  0  0  0
 39 40  2  0  0  0  0
 40 41  1  0  0  0  0
 41 23  2  0  0  0  0
 23 42  1  0  0  0  0
 42 43  2  0  0  0  0
 43 39  1  0  0  0  0
  8 44  1  0  0  0  0
 44 30  1  0  0  0  0
 26 45  1  1  0  0  0
  1  2  1  0  0  0  0
  3 46  1  6  0  0  0
M  END
>  <Mol Weight>
594.6967

>  <Formula>
C36H38N2O6

>  <chembl_id>
CHEMBL502441

$$$$

  Mrv0541 06201412482D          

 44 50  0  0  0  0            999 V2000
   -1.7258    0.0617    0.0000 N   0  0  0  0  0  0  0  0  0  0  0  0
   -2.1568   -0.6472    0.0000 C   0  0  0  0  0  0  0  0  0  0  0  0
   -1.7605   -1.3709    0.0000 C   0  0  0  0  0  0  0  0  0  0  0  0
   -0.9318   -1.3919    0.0000 C   0  0  0  0  0  0  0  0  0  0  0  0
   -0.5008   -0.6830    0.0000 C   0  0  0  0  0  0  0  0  0  0  0  0
   -0.8985    0.0470    0.0000 C   0  0  0  0  0  0  0  0  0  0  0  0
   -1.3673   -2.0927    0.0000 C   0  0  0  0  0  0  0  0  0  0  0  0
   -0.1073   -1.4208    0.0000 C   0  0  0  0  0  0  0  0  0  0  0  0
   -2.1930   -2.0631    0.0000 C   0  0  0  0  0  0  0  0  0  0  0  0
   -2.6284   -2.7630    0.0000 C   0  0  0  0  0  0  0  0  0  0  0  0
   -2.2392   -3.4916    0.0000 C   0  0  0  0  0  0  0  0  0  0  0  0
   -1.4102   -3.5158    0.0000 C   0  0  0  0  0  0  0  0  0  0  0  0
   -0.9785   -2.8152    0.0000 C   0  0  0  0  0  0  0  0  0  0  0  0
    0.2800   -2.1493    0.0000 C   0  0  0  0  0  0  0  0  0  0  0  0
    1.1046   -2.1782    0.0000 N   0  0  0  0  0  0  0  0  0  0  0  0
    1.8108   -2.0275    0.0000 C   0  0  1  0  0  0  0  0  0  0  0  0
    3.1274   -1.7242    0.0000 C   0  0  1  0  0  0  0  0  0  0  0  0
    2.4589   -1.8447    0.0000 C   0  0  0  0  0  0  0  0  0  0  0  0
    1.8266   -2.5979    0.0000 C   0  0  1  0  0  0  0  0  0  0  0  0
    2.4036   -1.2974    0.0000 C   0  0  0  0  0  0  0  0  0  0  0  0
    2.0394   -3.4693    0.0000 C   0  0  0  0  0  0  0  0  0  0  0  0
    2.1523   -2.7400    0.0000 C   0  0  0  0  0  0  0  0  0  0  0  0
    3.9395   -1.8697    0.0000 N   0  0  0  0  0  0  0  0  0  0  0  0
    5.2640   -1.6816    0.0000 N   0  0  0  0  0  0  0  0  0  0  0  0
    4.5366   -1.2925    0.0000 C   0  0  0  0  0  0  0  0  0  0  0  0
    5.1185   -2.4937    0.0000 C   0  0  0  0  0  0  0  0  0  0  0  0
    4.3043   -2.6045    0.0000 C   0  0  0  0  0  0  0  0  0  0  0  0
    3.9948   -3.3638    0.0000 C   0  0  0  0  0  0  0  0  0  0  0  0
    4.4984   -4.0127    0.0000 C   0  0  0  0  0  0  0  0  0  0  0  0
    5.3152   -3.8975    0.0000 C   0  0  0  0  0  0  0  0  0  0  0  0
    5.6210   -3.1384    0.0000 C   0  0  0  0  0  0  0  0  0  0  0  0
    4.4226   -0.4753    0.0000 C   0  0  0  0  0  0  0  0  0  0  0  0
   -2.1238    0.7845    0.0000 C   0  0  0  0  0  0  0  0  0  0  0  0
   -1.6969    1.4905    0.0000 O   0  0  0  0  0  0  0  0  0  0  0  0
   -2.9486    0.8012    0.0000 O   0  0  0  0  0  0  0  0  0  0  0  0
   -3.3466    1.5239    0.0000 C   0  0  0  0  0  0  0  0  0  0  0  0
   -4.1715    1.5406    0.0000 C   0  0  0  0  0  0  0  0  0  0  0  0
   -4.5660    2.2622    0.0000 C   0  0  0  0  0  0  0  0  0  0  0  0
   -5.3902    2.2792    0.0000 C   0  0  0  0  0  0  0  0  0  0  0  0
   -5.8179    1.5727    0.0000 C   0  0  0  0  0  0  0  0  0  0  0  0
   -5.4156    0.8475    0.0000 C   0  0  0  0  0  0  0  0  0  0  0  0
   -4.5928    0.8340    0.0000 C   0  0  0  0  0  0  0  0  0  0  0  0
    1.3935   -1.3110    0.0000 H   0  0  0  0  0  0  0  0  0  0  0  0
    1.2376   -3.1764    0.0000 H   0  0  0  0  0  0  0  0  0  0  0  0
 20 17  1  0  0  0  0
 19 21  1  0  0  0  0
 16 22  1  0  0  0  0
 21 22  1  0  0  0  0
 10 11  2  0  0  0  0
 17 23  1  1  0  0  0
 23 27  1  0  0  0  0
  4  5  1  0  0  0  0
 11 12  1  0  0  0  0
 26 24  1  0  0  0  0
 24 25  2  0  0  0  0
 25 23  1  0  0  0  0
  5  6  1  0  0  0  0
 12 13  2  0  0  0  0
 26 27  2  0  0  0  0
 13  7  1  0  0  0  0
 27 28  1  0  0  0  0
 28 29  2  0  0  0  0
  8 14  1  0  0  0  0
 29 30  1  0  0  0  0
  4  7  1  0  0  0  0
 30 31  2  0  0  0  0
 31 26  1  0  0  0  0
 14 15  1  0  0  0  0
 25 32  1  0  0  0  0
  1  2  1  0  0  0  0
  1 33  1  0  0  0  0
  4  8  1  0  0  0  0
 33 34  2  0  0  0  0
  1  6  1  0  0  0  0
 33 35  1  0  0  0  0
  7  9  2  0  0  0  0
 35 36  1  0  0  0  0
  2  3  1  0  0  0  0
 36 37  1  0  0  0  0
  9 10  1  0  0  0  0
 37 38  2  0  0  0  0
  3  4  1  0  0  0  0
 38 39  1  0  0  0  0
 17 18  1  0  0  0  0
 39 40  2  0  0  0  0
 18 19  1  0  0  0  0
 40 41  1  0  0  0  0
 19 15  1  0  0  0  0
 41 42  2  0  0  0  0
 42 37  1  0  0  0  0
 15 16  1  0  0  0  0
 16 43  1  6  0  0  0
 16 20  1  0  0  0  0
 19 44  1  6  0  0  0
M  END
>  <Mol Weight>
562.7443

>  <Formula>
C36H42N4O2

>  <chembl_id>
CHEMBL505270

$$$$

  Mrv0541 06201412482D          

 42 45  0  0  0  0            999 V2000
    1.8053   -3.0677    0.0000 N   0  0  0  0  0  0  0  0  0  0  0  0
    2.6305   -3.0683    0.0000 C   0  0  0  0  0  0  0  0  0  0  0  0
    2.8842   -2.2832    0.0000 C   0  0  0  0  0  0  0  0  0  0  0  0
    2.2202   -1.7963    0.0000 S   0  0  0  0  0  0  0  0  0  0  0  0
    1.5519   -2.2832    0.0000 C   0  0  0  0  0  0  0  0  0  0  0  0
    3.1175   -3.7368    0.0000 O   0  0  0  0  0  0  0  0  0  0  0  0
    3.6693   -2.0297    0.0000 C   0  0  0  0  0  0  0  0  0  0  0  0
    0.7668   -2.0297    0.0000 N   0  0  0  0  0  0  0  0  0  0  0  0
    0.5962   -1.2224    0.0000 C   0  0  0  0  0  0  0  0  0  0  0  0
    1.2077   -0.6698    0.0000 C   0  0  0  0  0  0  0  0  0  0  0  0
    1.0375    0.1369    0.0000 C   0  0  0  0  0  0  0  0  0  0  0  0
    0.2518    0.3912    0.0000 C   0  0  0  0  0  0  0  0  0  0  0  0
   -0.3640   -0.1628    0.0000 C   0  0  0  0  0  0  0  0  0  0  0  0
   -0.1862   -0.9674    0.0000 C   0  0  0  0  0  0  0  0  0  0  0  0
    3.8444   -1.2224    0.0000 C   0  0  0  0  0  0  0  0  0  0  0  0
    4.6312   -0.9678    0.0000 C   0  0  0  0  0  0  0  0  0  0  0  0
    4.8020   -0.1614    0.0000 C   0  0  0  0  0  0  0  0  0  0  0  0
    4.1872    0.3888    0.0000 C   0  0  0  0  0  0  0  0  0  0  0  0
    3.3990    0.1313    0.0000 C   0  0  0  0  0  0  0  0  0  0  0  0
    3.2319   -0.6746    0.0000 C   0  0  0  0  0  0  0  0  0  0  0  0
    2.7826    0.6829    0.0000 O   0  0  0  0  0  0  0  0  0  0  0  0
    2.9551    1.4907    0.0000 C   0  0  0  0  0  0  0  0  0  0  0  0
    4.3568    1.1962    0.0000 O   0  0  0  0  0  0  0  0  0  0  0  0
    5.5871    0.0918    0.0000 O   0  0  0  0  0  0  0  0  0  0  0  0
    6.1967   -0.4622    0.0000 C   0  0  0  0  0  0  0  0  0  0  0  0
    1.3228   -3.7360    0.0000 C   0  0  2  0  0  0  0  0  0  0  0  0
    0.4970   -3.7293    0.0000 C   0  0  0  0  0  0  0  0  0  0  0  0
    0.0879   -3.0108    0.0000 O   0  0  0  0  0  0  0  0  0  0  0  0
    1.6923   -4.4734    0.0000 C   0  0  0  0  0  0  0  0  0  0  0  0
    0.0764   -4.4413    0.0000 N   0  0  0  0  0  0  0  0  0  0  0  0
   -0.7489   -4.4346    0.0000 C   0  0  2  0  0  0  0  0  0  0  0  0
   -1.1649   -5.1465    0.0000 C   0  0  0  0  0  0  0  0  0  0  0  0
   -1.9901   -5.1398    0.0000 O   0  0  0  0  0  0  0  0  0  0  0  0
   -0.7604   -5.8606    0.0000 N   0  0  0  0  0  0  0  0  0  0  0  0
   -1.1534   -3.7161    0.0000 C   0  0  0  0  0  0  0  0  0  0  0  0
   -1.9786   -3.7094    0.0000 C   0  0  0  0  0  0  0  0  0  0  0  0
   -2.3845   -2.9909    0.0000 C   0  0  0  0  0  0  0  0  0  0  0  0
   -3.2089   -2.9839    0.0000 C   0  0  0  0  0  0  0  0  0  0  0  0
   -3.6258   -3.6963    0.0000 C   0  0  0  0  0  0  0  0  0  0  0  0
   -3.2168   -4.4172    0.0000 C   0  0  0  0  0  0  0  0  0  0  0  0
   -2.3938   -4.4206    0.0000 C   0  0  0  0  0  0  0  0  0  0  0  0
   -4.4509   -3.6907    0.0000 O   0  0  0  0  0  0  0  0  0  0  0  0
 20 15  1  0  0  0  0
  9 10  2  0  0  0  0
 19 21  1  0  0  0  0
  5  1  1  0  0  0  0
 21 22  1  0  0  0  0
 10 11  1  0  0  0  0
 18 23  1  0  0  0  0
  1  2  1  0  0  0  0
 17 24  1  0  0  0  0
 11 12  2  0  0  0  0
 24 25  1  0  0  0  0
  2  6  2  0  0  0  0
  1 26  1  0  0  0  0
 12 13  1  0  0  0  0
 26 27  1  0  0  0  0
 27 28  2  0  0  0  0
 13 14  2  0  0  0  0
 26 29  1  1  0  0  0
 14  9  1  0  0  0  0
 27 30  1  0  0  0  0
  3  7  2  0  0  0  0
 30 31  1  0  0  0  0
  7 15  1  0  0  0  0
 31 32  1  0  0  0  0
  2  3  1  0  0  0  0
 32 33  2  0  0  0  0
 15 16  2  0  0  0  0
 32 34  1  0  0  0  0
  5  8  2  0  0  0  0
 31 35  1  6  0  0  0
 16 17  1  0  0  0  0
 35 36  1  0  0  0  0
  3  4  1  0  0  0  0
 36 37  2  0  0  0  0
 17 18  2  0  0  0  0
 37 38  1  0  0  0  0
  8  9  1  0  0  0  0
 38 39  2  0  0  0  0
 18 19  1  0  0  0  0
 39 40  1  0  0  0  0
  4  5  1  0  0  0  0
 40 41  2  0  0  0  0
 41 36  1  0  0  0  0
 19 20  2  0  0  0  0
 39 42  1  0  0  0  0
M  END
>  <Mol Weight>
590.647

>  <Formula>
C30H30N4O7S

>  <chembl_id>
CHEMBL501276

$$$$

  Mrv0541 06201412482D          

 42 43  0  0  0  0            999 V2000
   -2.1750  -23.6083    0.0000 C   0  0  0  0  0  0  0  0  0  0  0  0
   -2.1750  -24.4333    0.0000 C   0  0  2  0  0  0  0  0  0  0  0  0
   -1.4630  -24.8417    0.0000 C   0  0  2  0  0  0  0  0  0  0  0  0
   -0.7510  -24.4333    0.0000 C   0  0  0  0  0  0  0  0  0  0  0  0
   -0.7510  -23.6083    0.0000 C   0  0  0  0  0  0  0  0  0  0  0  0
   -1.4630  -23.1917    0.0000 C   0  0  1  0  0  0  0  0  0  0  0  0
   -2.1833  -22.7792    0.0000 O   0  0  0  0  0  0  0  0  0  0  0  0
   -0.7542  -22.7750    0.0000 C   0  0  0  0  0  0  0  0  0  0  0  0
   -0.0365  -23.1819    0.0000 O   0  0  0  0  0  0  0  0  0  0  0  0
   -0.7606  -21.9500    0.0000 O   0  0  0  0  0  0  0  0  0  0  0  0
    0.6747  -22.7638    0.0000 C   0  0  0  0  0  0  0  0  0  0  0  0
    1.3924  -23.1707    0.0000 C   0  0  0  0  0  0  0  0  0  0  0  0
    2.1036  -22.7526    0.0000 C   0  0  0  0  0  0  0  0  0  0  0  0
    2.8213  -23.1595    0.0000 C   0  0  0  0  0  0  0  0  0  0  0  0
   -0.0371  -24.8469    0.0000 O   0  0  0  0  0  0  0  0  0  0  0  0
   -1.4630  -25.6667    0.0000 O   0  0  0  0  0  0  0  0  0  0  0  0
   -2.8889  -24.8469    0.0000 O   0  0  0  0  0  0  0  0  0  0  0  0
   -0.7485  -26.0792    0.0000 C   0  0  0  0  0  0  0  0  0  0  0  0
   -0.7485  -26.9042    0.0000 O   0  0  0  0  0  0  0  0  0  0  0  0
    0.6804  -26.0792    0.0000 C   0  0  0  0  0  0  0  0  0  0  0  0
    1.3949  -25.6667    0.0000 C   0  0  0  0  0  0  0  0  0  0  0  0
    2.1094  -26.0813    0.0000 C   0  0  0  0  0  0  0  0  0  0  0  0
    2.8234  -25.6695    0.0000 C   0  0  0  0  0  0  0  0  0  0  0  0
    2.8238  -24.8436    0.0000 C   0  0  0  0  0  0  0  0  0  0  0  0
    2.1043  -24.4313    0.0000 C   0  0  0  0  0  0  0  0  0  0  0  0
    3.5376  -26.0823    0.0000 O   0  0  0  0  0  0  0  0  0  0  0  0
    3.5372  -26.9073    0.0000 C   0  0  0  0  0  0  0  0  0  0  0  0
    3.5377  -24.4302    0.0000 O   0  0  0  0  0  0  0  0  0  0  0  0
   -3.6039  -24.4354    0.0000 C   0  0  0  0  0  0  0  0  0  0  0  0
   -4.3178  -24.8489    0.0000 C   0  0  0  0  0  0  0  0  0  0  0  0
   -3.6051  -23.6104    0.0000 O   0  0  0  0  0  0  0  0  0  0  0  0
   -0.0383  -25.6719    0.0000 C   0  0  0  0  0  0  0  0  0  0  0  0
    0.6780  -24.4354    0.0000 C   0  0  0  0  0  0  0  0  0  0  0  0
    1.3918  -24.8489    0.0000 C   0  0  0  0  0  0  0  0  0  0  0  0
    0.6792  -23.6104    0.0000 O   0  0  0  0  0  0  0  0  0  0  0  0
    1.4708  -24.2167    0.0000 C   0  0  0  0  0  0  0  0  0  0  0  0
    4.2527  -24.8417    0.0000 C   0  0  0  0  0  0  0  0  0  0  0  0
    4.9667  -24.4283    0.0000 C   0  0  0  0  0  0  0  0  0  0  0  0
    4.2538  -25.6667    0.0000 O   0  0  0  0  0  0  0  0  0  0  0  0
   -2.1863  -21.9542    0.0000 C   0  0  0  0  0  0  0  0  0  0  0  0
   -2.9022  -21.5442    0.0000 O   0  0  0  0  0  0  0  0  0  0  0  0
   -1.4733  -21.5391    0.0000 C   0  0  0  0  0  0  0  0  0  0  0  0
  8 10  2  0  0  0  0
 20 21  1  0  0  0  0
  3  4  1  0  0  0  0
 21 22  2  0  0  0  0
  9 11  1  0  0  0  0
 22 23  1  0  0  0  0
  4  5  1  0  0  0  0
 23 24  2  0  0  0  0
 11 12  1  0  0  0  0
 24 25  1  0  0  0  0
 25 34  2  0  0  0  0
 34 21  1  0  0  0  0
  5  6  1  0  0  0  0
 23 26  1  0  0  0  0
 12 13  1  0  0  0  0
 26 27  1  0  0  0  0
 24 28  1  0  0  0  0
 13 14  1  0  0  0  0
 17 29  1  0  0  0  0
  6  7  1  6  0  0  0
 29 30  1  0  0  0  0
  4 15  1  0  0  0  0
 29 31  2  0  0  0  0
  1  2  1  0  0  0  0
  3 16  1  6  0  0  0
 15 33  1  0  0  0  0
  6  8  1  0  0  0  0
  2 17  1  6  0  0  0
 33 35  2  0  0  0  0
  1  6  1  0  0  0  0
 33 36  1  0  0  0  0
 16 18  1  0  0  0  0
 28 37  1  0  0  0  0
  8  9  1  0  0  0  0
 37 38  1  0  0  0  0
 18 19  2  0  0  0  0
 37 39  2  0  0  0  0
 18 32  1  0  0  0  0
  7 40  1  0  0  0  0
  2  3  1  0  0  0  0
 40 41  2  0  0  0  0
 32 20  2  0  0  0  0
 40 42  1  0  0  0  0
M  END
>  <Mol Weight>
592.5883

>  <Formula>
C29H36O13

>  <chembl_id>
CHEMBL502624

$$$$

  Mrv0541 06201412482D          

 41 45  0  0  0  0            999 V2000
    5.5132   -1.7629    0.0000 C   0  0  0  0  0  0  0  0  0  0  0  0
    6.2276   -2.1754    0.0000 C   0  0  0  0  0  0  0  0  0  0  0  0
    6.2276   -0.5254    0.0000 C   0  0  0  0  0  0  0  0  0  0  0  0
    5.5132   -0.9379    0.0000 C   0  0  0  0  0  0  0  0  0  0  0  0
    6.9421   -0.9379    0.0000 C   0  0  0  0  0  0  0  0  0  0  0  0
    6.9421   -1.7629    0.0000 C   0  0  0  0  0  0  0  0  0  0  0  0
    7.6566   -2.1754    0.0000 C   0  0  0  0  0  0  0  0  0  0  0  0
    8.3711   -1.7629    0.0000 C   0  0  0  0  0  0  0  0  0  0  0  0
    8.3711   -0.9379    0.0000 C   0  0  0  0  0  0  0  0  0  0  0  0
    7.6566   -0.5254    0.0000 C   0  0  0  0  0  0  0  0  0  0  0  0
    6.2276    0.2996    0.0000 O   0  0  0  0  0  0  0  0  0  0  0  0
    6.9421    0.7121    0.0000 C   0  0  0  0  0  0  0  0  0  0  0  0
    6.9421    1.5371    0.0000 C   0  0  0  0  0  0  0  0  0  0  0  0
    7.6566    1.9496    0.0000 N   0  0  0  0  0  0  0  0  0  0  0  0
    7.6566    2.7746    0.0000 C   0  0  0  0  0  0  0  0  0  0  0  0
    8.3711    3.1871    0.0000 C   0  0  0  0  0  0  0  0  0  0  0  0
    9.0855    2.7746    0.0000 O   0  0  0  0  0  0  0  0  0  0  0  0
    9.0855    1.9496    0.0000 C   0  0  0  0  0  0  0  0  0  0  0  0
    8.3711    1.5371    0.0000 C   0  0  0  0  0  0  0  0  0  0  0  0
    6.2276   -3.0004    0.0000 N   0  0  0  0  0  0  0  0  0  0  0  0
    6.9421   -3.4129    0.0000 C   0  0  0  0  0  0  0  0  0  0  0  0
    7.6566   -3.0004    0.0000 O   0  0  0  0  0  0  0  0  0  0  0  0
    6.9421   -4.2379    0.0000 C   0  0  0  0  0  0  0  0  0  0  0  0
    7.6566   -4.6504    0.0000 C   0  0  0  0  0  0  0  0  0  0  0  0
    8.4103   -4.3149    0.0000 C   0  0  0  0  0  0  0  0  0  0  0  0
    8.9623   -4.9280    0.0000 C   0  0  0  0  0  0  0  0  0  0  0  0
    8.5498   -5.6424    0.0000 N   0  0  0  0  0  0  0  0  0  0  0  0
    7.7428   -5.4709    0.0000 N   0  0  0  0  0  0  0  0  0  0  0  0
    9.7828   -4.8417    0.0000 C   0  0  0  0  0  0  0  0  0  0  0  0
   10.6033   -4.7555    0.0000 C   0  0  0  0  0  0  0  0  0  0  0  0
    9.8690   -5.6622    0.0000 C   0  0  0  0  0  0  0  0  0  0  0  0
    9.6965   -4.0212    0.0000 C   0  0  0  0  0  0  0  0  0  0  0  0
    7.1297   -6.0229    0.0000 C   0  0  0  0  0  0  0  0  0  0  0  0
    6.2276   -4.6504    0.0000 O   0  0  0  0  0  0  0  0  0  0  0  0
    7.3013   -6.8299    0.0000 C   0  0  0  0  0  0  0  0  0  0  0  0
    6.6882   -7.3819    0.0000 C   0  0  0  0  0  0  0  0  0  0  0  0
    5.9035   -7.1270    0.0000 C   0  0  0  0  0  0  0  0  0  0  0  0
    5.7320   -6.3200    0.0000 C   0  0  0  0  0  0  0  0  0  0  0  0
    6.3451   -5.7680    0.0000 C   0  0  0  0  0  0  0  0  0  0  0  0
    6.8597   -8.1889    0.0000 F   0  0  0  0  0  0  0  0  0  0  0  0
    5.2904   -7.6790    0.0000 F   0  0  0  0  0  0  0  0  0  0  0  0
  4  1  1  0  0  0  0
  2 20  1  0  0  0  0
  9 10  1  0  0  0  0
 20 21  1  0  0  0  0
 10  5  2  0  0  0  0
 21 22  2  0  0  0  0
  2  6  1  0  0  0  0
 21 23  1  0  0  0  0
  3 11  1  0  0  0  0
 23 24  1  0  0  0  0
 24 25  2  0  0  0  0
 11 12  1  0  0  0  0
  5  6  1  0  0  0  0
 12 13  1  0  0  0  0
 25 26  1  0  0  0  0
 26 27  2  0  0  0  0
 27 28  1  0  0  0  0
 28 24  1  0  0  0  0
  5  3  1  0  0  0  0
 26 29  1  0  0  0  0
 13 14  1  0  0  0  0
 29 30  1  0  0  0  0
 14 15  1  0  0  0  0
 29 31  1  0  0  0  0
  6  7  2  0  0  0  0
 29 32  1  0  0  0  0
  1  2  2  0  0  0  0
 28 33  1  0  0  0  0
  7  8  1  0  0  0  0
 23 34  2  0  0  0  0
  3  4  2  0  0  0  0
 33 35  2  0  0  0  0
  8  9  2  0  0  0  0
 35 36  1  0  0  0  0
 14 19  1  0  0  0  0
 36 37  2  0  0  0  0
 15 16  1  0  0  0  0
 37 38  1  0  0  0  0
 16 17  1  0  0  0  0
 38 39  2  0  0  0  0
 39 33  1  0  0  0  0
 17 18  1  0  0  0  0
 36 40  1  0  0  0  0
 18 19  1  0  0  0  0
 37 41  1  0  0  0  0
M  END
>  <Mol Weight>
562.607

>  <Formula>
C31H32F2N4O4

>  <chembl_id>
CHEMBL502626

$$$$

  Mrv0541 06201412482D          

 41 45  0  0  0  0            999 V2000
   -0.8855    0.4542    0.0000 C   0  0  0  0  0  0  0  0  0  0  0  0
   -0.1711    0.0417    0.0000 N   0  0  0  0  0  0  0  0  0  0  0  0
    0.5434    0.4542    0.0000 C   0  0  2  0  0  0  0  0  0  0  0  0
    1.9724   -2.0208    0.0000 C   0  0  0  0  0  0  0  0  0  0  0  0
    1.2579   -2.4333    0.0000 N   0  0  0  0  0  0  0  0  0  0  0  0
    1.2579   -3.2583    0.0000 C   0  0  2  0  0  0  0  0  0  0  0  0
   -1.6000   -3.2583    0.0000 C   0  0  0  0  0  0  0  0  0  0  0  0
   -1.6000   -2.4333    0.0000 N   0  0  0  0  0  0  0  0  0  0  0  0
   -2.3145   -2.0208    0.0000 C   0  0  2  0  0  0  0  0  0  0  0  0
   -1.5955   -0.7833    0.0000 N   0  0  0  0  0  0  0  0  0  0  0  0
   -1.6000    0.0416    0.0000 C   0  0  0  0  0  0  0  0  0  0  0  0
   -2.3859    0.2923    0.0000 C   0  0  0  0  0  0  0  0  0  0  0  0
   -2.8672   -0.3778    0.0000 S   0  0  0  0  0  0  0  0  0  0  0  0
   -2.3161   -1.1924    0.0000 C   0  0  0  0  0  0  0  0  0  0  0  0
    1.2579    0.0376    0.0000 C   0  0  0  0  0  0  0  0  0  0  0  0
    1.2624   -0.7792    0.0000 N   0  0  0  0  0  0  0  0  0  0  0  0
    1.9739   -1.1941    0.0000 C   0  0  0  0  0  0  0  0  0  0  0  0
    2.5171   -0.3640    0.0000 C   0  0  0  0  0  0  0  0  0  0  0  0
    2.0334    0.2941    0.0000 S   0  0  0  0  0  0  0  0  0  0  0  0
   -0.1771   -3.2566    0.0000 N   0  0  0  0  0  0  0  0  0  0  0  0
   -0.8813   -3.6736    0.0000 C   0  0  0  0  0  0  0  0  0  0  0  0
   -0.7024   -4.4723    0.0000 C   0  0  0  0  0  0  0  0  0  0  0  0
    0.1125   -4.5489    0.0000 O   0  0  0  0  0  0  0  0  0  0  0  0
    0.5454   -3.6684    0.0000 C   0  0  0  0  0  0  0  0  0  0  0  0
   -0.8856    1.2792    0.0000 O   0  0  0  0  0  0  0  0  0  0  0  0
    0.5452    1.2792    0.0000 C   0  0  0  0  0  0  0  0  0  0  0  0
    1.2605    1.6901    0.0000 C   0  0  0  0  0  0  0  0  0  0  0  0
    2.0100    1.3513    0.0000 C   0  0  0  0  0  0  0  0  0  0  0  0
    2.5634    1.9632    0.0000 N   0  0  0  0  0  0  0  0  0  0  0  0
    2.1524    2.6786    0.0000 C   0  0  0  0  0  0  0  0  0  0  0  0
    1.3451    2.5087    0.0000 N   0  0  0  0  0  0  0  0  0  0  0  0
    0.7321    3.0608    0.0000 C   0  0  0  0  0  0  0  0  0  0  0  0
    2.6864   -2.4340    0.0000 O   0  0  0  0  0  0  0  0  0  0  0  0
    1.9721   -3.6713    0.0000 C   0  0  0  0  0  0  0  0  0  0  0  0
   -2.3145   -3.6707    0.0000 O   0  0  0  0  0  0  0  0  0  0  0  0
   -3.0285   -2.4340    0.0000 C   0  0  1  0  0  0  0  0  0  0  0  0
   -3.0277   -3.2590    0.0000 C   0  0  0  0  0  0  0  0  0  0  0  0
   -3.7434   -2.0222    0.0000 C   0  0  0  0  0  0  0  0  0  0  0  0
   -4.4575   -2.4354    0.0000 C   0  0  0  0  0  0  0  0  0  0  0  0
   -3.0333   -1.6042    0.0000 H   0  0  0  0  0  0  0  0  0  0  0  0
   -1.2477   -5.0914    0.0000 C   0  0  0  0  0  0  0  0  0  0  0  0
 19 15  1  0  0  0  0
 20 21  1  0  0  0  0
  9  8  1  0  0  0  0
  9 14  1  0  0  0  0
 10 11  1  0  0  0  0
 17  4  1  0  0  0  0
 21 22  2  0  0  0  0
 22 23  1  0  0  0  0
 23 24  1  0  0  0  0
 24 20  2  0  0  0  0
  1  2  1  0  0  0  0
  1 25  2  0  0  0  0
  4  5  1  0  0  0  0
  3 26  1  1  0  0  0
 11  1  1  0  0  0  0
 26 27  1  0  0  0  0
 27 28  2  0  0  0  0
  5  6  1  0  0  0  0
 11 12  2  0  0  0  0
 12 13  1  0  0  0  0
 13 14  1  0  0  0  0
 28 29  1  0  0  0  0
 29 30  2  0  0  0  0
 30 31  1  0  0  0  0
 31 27  1  0  0  0  0
 14 10  2  0  0  0  0
 31 32  1  0  0  0  0
 15 16  2  0  0  0  0
  4 33  2  0  0  0  0
  6 24  1  0  0  0  0
  6 34  1  1  0  0  0
  2  3  1  0  0  0  0
  7 35  2  0  0  0  0
 21  7  1  0  0  0  0
  9 36  1  0  0  0  0
  3 15  1  0  0  0  0
 36 37  1  1  0  0  0
  7  8  1  0  0  0  0
 36 38  1  0  0  0  0
 16 17  1  0  0  0  0
 38 39  1  0  0  0  0
 17 18  2  0  0  0  0
  9 40  1  6  0  0  0
 18 19  1  0  0  0  0
 22 41  1  0  0  0  0
M  END
>  <Mol Weight>
582.698

>  <Formula>
C26H30N8O4S2

>  <chembl_id>
CHEMBL503451

$$$$

  Mrv0541 06201412482D          

 44 47  0  0  0  0            999 V2000
   13.2417   -0.5875    0.0000 C   0  0  1  0  0  0  0  0  0  0  0  0
   13.2417   -1.4125    0.0000 C   0  0  1  0  0  0  0  0  0  0  0  0
   13.9537   -1.8208    0.0000 C   0  0  0  0  0  0  0  0  0  0  0  0
   13.9537   -0.1708    0.0000 C   0  0  0  0  0  0  0  0  0  0  0  0
   14.6657   -0.5875    0.0000 C   0  0  1  0  0  0  0  0  0  0  0  0
   14.6622   -1.4125    0.0000 C   0  0  1  0  0  0  0  0  0  0  0  0
   15.3710   -1.8257    0.0000 C   0  0  0  0  0  0  0  0  0  0  0  0
   16.0878   -1.4185    0.0000 C   0  0  0  0  0  0  0  0  0  0  0  0
   15.3780   -0.1757    0.0000 C   0  0  0  0  0  0  0  0  0  0  0  0
   16.0913   -0.5984    0.0000 C   0  0  0  0  0  0  0  0  0  0  0  0
   16.1083    1.0569    0.0000 C   0  0  1  0  0  0  0  0  0  0  0  0
   15.3834    0.6511    0.0000 C   0  0  2  0  0  0  0  0  0  0  0  0
   16.8217    0.6342    0.0000 C   0  0  1  0  0  0  0  0  0  0  0  0
   16.8082   -0.1923    0.0000 C   0  0  1  0  0  0  0  0  0  0  0  0
   17.5902   -0.4605    0.0000 C   0  0  0  0  0  0  0  0  0  0  0  0
   18.0869    0.2003    0.0000 C   0  0  0  0  0  0  0  0  0  0  0  0
   17.6119    0.8768    0.0000 C   0  0  2  0  0  0  0  0  0  0  0  0
   16.8167    1.4625    0.0000 C   0  0  0  0  0  0  0  0  0  0  0  0
   17.8796    1.6572    0.0000 C   0  0  1  0  0  0  0  0  0  0  0  0
   18.6892    1.8156    0.0000 C   0  0  0  0  0  0  0  0  0  0  0  0
   17.3376    2.2792    0.0000 C   0  0  0  0  0  0  0  0  0  0  0  0
   19.2312    1.1936    0.0000 C   0  0  0  0  0  0  0  0  0  0  0  0
   20.0409    1.3520    0.0000 C   0  0  0  0  0  0  0  0  0  0  0  0
   20.5829    0.7300    0.0000 C   0  0  0  0  0  0  0  0  0  0  0  0
   20.3085    2.1324    0.0000 C   0  0  0  0  0  0  0  0  0  0  0  0
   20.3152   -0.0503    0.0000 C   0  0  0  0  0  0  0  0  0  0  0  0
   21.3925    0.8884    0.0000 C   0  0  0  0  0  0  0  0  0  0  0  0
   16.1185    1.8818    0.0000 O   0  0  0  0  0  0  0  0  0  0  0  0
   15.4092    2.3031    0.0000 C   0  0  0  0  0  0  0  0  0  0  0  0
   15.4193    3.1280    0.0000 C   0  0  0  0  0  0  0  0  0  0  0  0
   14.6897    1.8994    0.0000 O   0  0  0  0  0  0  0  0  0  0  0  0
   14.6730    1.0707    0.0000 O   0  0  0  0  0  0  0  0  0  0  0  0
   14.6583    0.2375    0.0000 C   0  0  0  0  0  0  0  0  0  0  0  0
   14.6542   -2.2333    0.0000 H   0  0  0  0  0  0  0  0  0  0  0  0
   13.5333   -2.5333    0.0000 C   0  0  0  0  0  0  0  0  0  0  0  0
   14.3583   -2.5333    0.0000 C   0  0  0  0  0  0  0  0  0  0  0  0
   12.5278   -1.8260    0.0000 O   0  0  0  0  0  0  0  0  0  0  0  0
   12.5260   -0.1771    0.0000 O   0  0  0  0  0  0  0  0  0  0  0  0
   11.8127   -1.4146    0.0000 S   0  0  0  0  0  0  0  0  0  0  0  0
   11.0958   -1.0000    0.0000 O   0  0  0  0  0  0  0  0  0  0  0  0
   11.4005   -2.1292    0.0000 O   0  0  0  0  0  0  0  0  0  0  0  0
   12.2277   -0.7015    0.0000 O   0  0  0  0  0  0  0  0  0  0  0  0
   18.4333    0.8792    0.0000 H   0  0  0  0  0  0  0  0  0  0  0  0
   17.0167   -0.9875    0.0000 H   0  0  0  0  0  0  0  0  0  0  0  0
  3  6  1  0  0  0  0
 19 21  1  6  0  0  0
  5  4  1  0  0  0  0
 20 22  1  0  0  0  0
  5  6  1  0  0  0  0
 22 23  1  0  0  0  0
 23 24  1  0  0  0  0
  9 12  1  0  0  0  0
 23 25  2  0  0  0  0
 10 14  1  0  0  0  0
 24 26  1  0  0  0  0
 13 11  1  0  0  0  0
 24 27  1  0  0  0  0
 11 12  1  0  0  0  0
 11 28  1  6  0  0  0
 13 14  1  0  0  0  0
 28 29  1  0  0  0  0
  1  2  1  0  0  0  0
 29 30  1  0  0  0  0
  1  4  1  0  0  0  0
 29 31  2  0  0  0  0
  2  3  1  0  0  0  0
 12 32  1  1  0  0  0
  5  9  1  0  0  0  0
  5 33  1  1  0  0  0
  6  7  1  0  0  0  0
  6 34  1  6  0  0  0
 14 15  1  0  0  0  0
  3 35  1  0  0  0  0
 15 16  1  0  0  0  0
  3 36  1  0  0  0  0
 16 17  1  0  0  0  0
  2 37  1  1  0  0  0
 17 13  1  0  0  0  0
  1 38  1  6  0  0  0
  7  8  1  0  0  0  0
 37 39  1  0  0  0  0
 13 18  1  1  0  0  0
 39 40  1  0  0  0  0
  8 10  1  0  0  0  0
 39 41  2  0  0  0  0
 17 19  1  0  0  0  0
 39 42  2  0  0  0  0
  9 10  2  0  0  0  0
 17 43  1  6  0  0  0
 19 20  1  0  0  0  0
 14 44  1  6  0  0  0
M  END
>  <Mol Weight>
596.815

>  <Formula>
C32H52O8S

>  <chembl_id>
CHEMBL503991

$$$$

  Mrv0541 06201412482D          

 46 52  0  0  0  0            999 V2000
   -3.9297  -23.9996    0.0000 C   0  0  0  0  0  0  0  0  0  0  0  0
   -3.9297  -24.8286    0.0000 C   0  0  0  0  0  0  0  0  0  0  0  0
   -3.2158  -25.2409    0.0000 C   0  0  0  0  0  0  0  0  0  0  0  0
   -3.2158  -23.5829    0.0000 C   0  0  0  0  0  0  0  0  0  0  0  0
   -2.4972  -23.9996    0.0000 C   0  0  1  0  0  0  0  0  0  0  0  0
   -2.4961  -24.8286    0.0000 C   0  0  0  0  0  0  0  0  0  0  0  0
   -1.7816  -25.2400    0.0000 C   0  0  0  0  0  0  0  0  0  0  0  0
   -1.0636  -24.8268    0.0000 C   0  0  0  0  0  0  0  0  0  0  0  0
   -1.7838  -23.5819    0.0000 C   0  0  2  0  0  0  0  0  0  0  0  0
   -1.0621  -23.9969    0.0000 C   0  0  2  0  0  0  0  0  0  0  0  0
   -1.0668  -22.3348    0.0000 C   0  0  0  0  0  0  0  0  0  0  0  0
   -1.7893  -22.7518    0.0000 C   0  0  0  0  0  0  0  0  0  0  0  0
   -0.3450  -22.7498    0.0000 C   0  0  1  0  0  0  0  0  0  0  0  0
   -0.3471  -23.5839    0.0000 C   0  0  1  0  0  0  0  0  0  0  0  0
    0.4456  -23.8437    0.0000 C   0  0  0  0  0  0  0  0  0  0  0  0
    0.9377  -23.1700    0.0000 C   0  0  0  0  0  0  0  0  0  0  0  0
    0.4490  -22.4940    0.0000 C   0  0  2  0  0  0  0  0  0  0  0  0
   -2.5053  -23.1752    0.0000 C   0  0  0  0  0  0  0  0  0  0  0  0
   -1.7909  -24.4027    0.0000 H   0  0  0  0  0  0  0  0  0  0  0  0
   -1.0671  -23.1707    0.0000 H   0  0  0  0  0  0  0  0  0  0  0  0
   -0.3526  -24.4073    0.0000 H   0  0  0  0  0  0  0  0  0  0  0  0
   -0.3526  -21.9248    0.0000 C   0  0  0  0  0  0  0  0  0  0  0  0
    0.7057  -21.7106    0.0000 C   0  0  1  0  0  0  0  0  0  0  0  0
    1.5125  -21.5412    0.0000 C   0  0  0  0  0  0  0  0  0  0  0  0
    0.1555  -21.0966    0.0000 C   0  0  0  0  0  0  0  0  0  0  0  0
    1.2412  -22.2776    0.0000 H   0  0  0  0  0  0  0  0  0  0  0  0
    2.0626  -22.1551    0.0000 C   0  0  0  0  0  0  0  0  0  0  0  0
    2.8694  -21.9857    0.0000 C   0  0  0  0  0  0  0  0  0  0  0  0
    3.4196  -22.5998    0.0000 C   0  0  0  0  0  0  0  0  0  0  0  0
    4.2264  -22.4304    0.0000 C   0  0  0  0  0  0  0  0  0  0  0  0
    3.1629  -23.3832    0.0000 C   0  0  0  0  0  0  0  0  0  0  0  0
   -0.3504  -25.2402    0.0000 N   0  0  0  0  0  0  0  0  0  0  0  0
   -0.3518  -26.0646    0.0000 N   0  0  0  0  0  0  0  0  0  0  0  0
    0.3614  -26.4780    0.0000 C   0  0  0  0  0  0  0  0  0  0  0  0
    0.4464  -27.2938    0.0000 S   0  0  0  0  0  0  0  0  0  0  0  0
    1.1153  -26.1398    0.0000 N   0  0  0  0  0  0  0  0  0  0  0  0
    1.6660  -26.7533    0.0000 C   0  0  0  0  0  0  0  0  0  0  0  0
    1.2530  -27.4649    0.0000 C   0  0  0  0  0  0  0  0  0  0  0  0
    1.6628  -28.1763    0.0000 N   0  0  0  0  0  0  0  0  0  0  0  0
    2.4843  -26.7524    0.0000 N   0  0  0  0  0  0  0  0  0  0  0  0
    2.8964  -27.4608    0.0000 C   0  0  0  0  0  0  0  0  0  0  0  0
    2.4856  -28.1747    0.0000 C   0  0  0  0  0  0  0  0  0  0  0  0
    2.8982  -28.8853    0.0000 C   0  0  0  0  0  0  0  0  0  0  0  0
    3.7216  -28.8833    0.0000 C   0  0  0  0  0  0  0  0  0  0  0  0
    4.1307  -28.1648    0.0000 C   0  0  0  0  0  0  0  0  0  0  0  0
    3.7157  -27.4571    0.0000 C   0  0  0  0  0  0  0  0  0  0  0  0
  5  4  1  0  0  0  0
 13 22  1  1  0  0  0
  5  6  1  0  0  0  0
 17 23  1  0  0  0  0
 23 24  1  0  0  0  0
  9 12  1  0  0  0  0
 23 25  1  6  0  0  0
 10 14  1  0  0  0  0
 17 26  1  6  0  0  0
 13 11  1  0  0  0  0
 24 27  1  0  0  0  0
 11 12  1  0  0  0  0
 27 28  1  0  0  0  0
 13 14  1  0  0  0  0
 28 29  1  0  0  0  0
  1  2  1  0  0  0  0
 29 30  1  0  0  0  0
  1  4  1  0  0  0  0
 29 31  1  0  0  0  0
  2  3  1  0  0  0  0
  8 32  2  0  0  0  0
  5  9  1  0  0  0  0
 32 33  1  0  0  0  0
  6  7  2  0  0  0  0
 33 34  1  0  0  0  0
 34 35  1  0  0  0  0
 14 15  1  0  0  0  0
 15 16  1  0  0  0  0
 35 38  1  0  0  0  0
 37 36  1  0  0  0  0
 36 34  2  0  0  0  0
 16 17  1  0  0  0  0
 17 13  1  0  0  0  0
 37 38  2  0  0  0  0
  7  8  1  0  0  0  0
 38 39  1  0  0  0  0
 39 42  2  0  0  0  0
  5 18  1  1  0  0  0
 41 40  2  0  0  0  0
 40 37  1  0  0  0  0
  8 10  1  0  0  0  0
  9 19  1  6  0  0  0
 41 42  1  0  0  0  0
  9 10  1  0  0  0  0
 42 43  1  0  0  0  0
 10 20  1  1  0  0  0
 43 44  2  0  0  0  0
  3  6  1  0  0  0  0
 44 45  1  0  0  0  0
 14 21  1  6  0  0  0
 45 46  2  0  0  0  0
 46 41  1  0  0  0  0
M  END
>  <Mol Weight>
583.873

>  <Formula>
C36H49N5S

>  <chembl_id>
CHEMBL504164

$$$$

  Mrv0541 06201412482D          

 44 47  0  0  0  0            999 V2000
    8.8069    2.0459    0.0000 C   0  0  0  0  0  0  0  0  0  0  0  0
    8.8057    1.2185    0.0000 C   0  0  0  0  0  0  0  0  0  0  0  0
    9.5206    0.8056    0.0000 C   0  0  0  0  0  0  0  0  0  0  0  0
   10.2370    1.2190    0.0000 C   0  0  0  0  0  0  0  0  0  0  0  0
   10.2341    2.0495    0.0000 C   0  0  0  0  0  0  0  0  0  0  0  0
    9.5188    2.4586    0.0000 C   0  0  0  0  0  0  0  0  0  0  0  0
    8.0923    2.4582    0.0000 F   0  0  0  0  0  0  0  0  0  0  0  0
   10.9521    0.8076    0.0000 C   0  0  0  0  0  0  0  0  0  0  0  0
   11.6659    1.2212    0.0000 C   0  0  1  0  0  0  0  0  0  0  0  0
   11.6666    2.0514    0.0000 N   0  0  0  0  0  0  0  0  0  0  0  0
   12.3806    0.8091    0.0000 C   0  0  0  0  0  0  0  0  0  0  0  0
   12.3811   -0.0159    0.0000 N   0  0  0  0  0  0  0  0  0  0  0  0
   13.0949    1.2220    0.0000 O   0  0  0  0  0  0  0  0  0  0  0  0
   11.6672   -0.4238    0.0000 C   0  0  0  0  0  0  0  0  0  0  0  0
   11.6657   -1.2452    0.0000 C   0  0  0  0  0  0  0  0  0  0  0  0
   12.3786   -1.6612    0.0000 N   0  0  0  0  0  0  0  0  0  0  0  0
   13.0946   -1.2495    0.0000 C   0  0  0  0  0  0  0  0  0  0  0  0
   13.0978   -0.4219    0.0000 C   0  0  2  0  0  0  0  0  0  0  0  0
   13.8079   -1.6640    0.0000 O   0  0  0  0  0  0  0  0  0  0  0  0
   13.8114   -0.0079    0.0000 C   0  0  0  0  0  0  0  0  0  0  0  0
   14.5267   -0.4188    0.0000 C   0  0  0  0  0  0  0  0  0  0  0  0
   15.2403   -0.0048    0.0000 C   0  0  0  0  0  0  0  0  0  0  0  0
   12.3759   -2.4862    0.0000 C   0  0  2  0  0  0  0  0  0  0  0  0
   11.6601   -2.8964    0.0000 C   0  0  0  0  0  0  0  0  0  0  0  0
   13.0891   -2.9010    0.0000 C   0  0  0  0  0  0  0  0  0  0  0  0
   13.0864   -3.7260    0.0000 C   0  0  0  0  0  0  0  0  0  0  0  0
   12.3697   -4.1348    0.0000 C   0  0  0  0  0  0  0  0  0  0  0  0
   12.3667   -4.9590    0.0000 C   0  0  0  0  0  0  0  0  0  0  0  0
   13.7980   -4.1371    0.0000 C   0  0  0  0  0  0  0  0  0  0  0  0
   13.7986   -4.9600    0.0000 C   0  0  0  0  0  0  0  0  0  0  0  0
   13.0797   -5.3706    0.0000 C   0  0  0  0  0  0  0  0  0  0  0  0
   13.0769   -6.1965    0.0000 C   0  0  0  0  0  0  0  0  0  0  0  0
   13.7922   -6.6128    0.0000 C   0  0  0  0  0  0  0  0  0  0  0  0
   14.5118   -6.1972    0.0000 C   0  0  0  0  0  0  0  0  0  0  0  0
   14.5110   -5.3726    0.0000 C   0  0  0  0  0  0  0  0  0  0  0  0
   10.9470   -2.4816    0.0000 N   0  0  0  0  0  0  0  0  0  0  0  0
   11.6575   -3.7214    0.0000 O   0  0  0  0  0  0  0  0  0  0  0  0
   10.9496   -1.6566    0.0000 C   0  0  0  0  0  0  0  0  0  0  0  0
   11.9682    2.8193    0.0000 C   0  0  0  0  0  0  0  0  0  0  0  0
   11.4539    3.4644    0.0000 O   0  0  0  0  0  0  0  0  0  0  0  0
   12.7840    2.9421    0.0000 C   0  0  1  0  0  0  0  0  0  0  0  0
   13.0855    3.7100    0.0000 N   0  0  0  0  0  0  0  0  0  0  0  0
   13.9014    3.8255    0.0000 C   0  0  0  0  0  0  0  0  0  0  0  0
   13.2982    2.2970    0.0000 C   0  0  0  0  0  0  0  0  0  0  0  0
  2  3  1  0  0  0  0
 21 22  1  0  0  0  0
  9 11  1  0  0  0  0
 16 23  1  0  0  0  0
  5  6  2  0  0  0  0
 23 24  1  0  0  0  0
 11 12  1  0  0  0  0
 23 25  1  1  0  0  0
  6  1  1  0  0  0  0
 25 26  1  0  0  0  0
 11 13  2  0  0  0  0
 26 27  2  0  0  0  0
 12 14  1  0  0  0  0
 27 28  1  0  0  0  0
 28 31  2  0  0  0  0
  1  2  2  0  0  0  0
 30 29  2  0  0  0  0
 29 26  1  0  0  0  0
  1  7  1  0  0  0  0
  3  4  2  0  0  0  0
 30 31  1  0  0  0  0
  4  8  1  0  0  0  0
 31 32  1  0  0  0  0
 32 33  2  0  0  0  0
 12 18  1  0  0  0  0
 33 34  1  0  0  0  0
 14 15  1  0  0  0  0
 34 35  2  0  0  0  0
 35 30  1  0  0  0  0
 15 16  1  0  0  0  0
 24 36  1  0  0  0  0
 16 17  1  0  0  0  0
 24 37  2  0  0  0  0
 17 18  1  0  0  0  0
 36 38  1  0  0  0  0
  8  9  1  0  0  0  0
 10 39  1  0  0  0  0
 17 19  2  0  0  0  0
 39 40  2  0  0  0  0
  4  5  1  0  0  0  0
 39 41  1  0  0  0  0
 18 20  1  1  0  0  0
 41 42  1  0  0  0  0
  9 10  1  1  0  0  0
 42 43  1  0  0  0  0
 20 21  1  0  0  0  0
 41 44  1  1  0  0  0
M  END
>  <Mol Weight>
603.7268

>  <Formula>
C34H42FN5O4

>  <chembl_id>
CHEMBL504349

$$$$

  Mrv0541 06201412482D          

 43 47  0  0  0  0            999 V2000
   -1.7233   -5.8203    0.0000 C   0  0  0  0  0  0  0  0  0  0  0  0
   -2.5507   -5.8173    0.0000 C   0  0  0  0  0  0  0  0  0  0  0  0
   -2.9652   -6.5312    0.0000 C   0  0  0  0  0  0  0  0  0  0  0  0
   -2.5535   -7.2486    0.0000 C   0  0  0  0  0  0  0  0  0  0  0  0
   -1.7229   -7.2476    0.0000 C   0  0  0  0  0  0  0  0  0  0  0  0
   -1.3122   -6.5331    0.0000 C   0  0  0  0  0  0  0  0  0  0  0  0
   -0.4872   -6.5325    0.0000 C   0  0  0  0  0  0  0  0  0  0  0  0
   -0.0780   -7.2463    0.0000 C   0  0  0  0  0  0  0  0  0  0  0  0
    0.7462   -7.2460    0.0000 C   0  0  0  0  0  0  0  0  0  0  0  0
    1.1591   -6.5307    0.0000 C   0  0  0  0  0  0  0  0  0  0  0  0
    0.7416   -5.8142    0.0000 C   0  0  0  0  0  0  0  0  0  0  0  0
   -0.0813   -5.8179    0.0000 C   0  0  0  0  0  0  0  0  0  0  0  0
    1.9841   -6.5290    0.0000 N   0  0  0  0  0  0  0  0  0  0  0  0
    2.3996   -7.2417    0.0000 C   0  0  0  0  0  0  0  0  0  0  0  0
    3.2246   -7.2382    0.0000 C   0  0  0  0  0  0  0  0  0  0  0  0
    1.9902   -7.9579    0.0000 O   0  0  0  0  0  0  0  0  0  0  0  0
    3.7131   -7.8994    0.0000 O   0  0  0  0  0  0  0  0  0  0  0  0
    3.7074   -6.5645    0.0000 C   0  0  0  0  0  0  0  0  0  0  0  0
    3.4482   -5.7812    0.0000 C   0  0  0  0  0  0  0  0  0  0  0  0
    4.4931   -6.8161    0.0000 C   0  0  0  0  0  0  0  0  0  0  0  0
    4.4933   -7.6398    0.0000 C   0  0  0  0  0  0  0  0  0  0  0  0
    5.2056   -8.0498    0.0000 C   0  0  0  0  0  0  0  0  0  0  0  0
    5.9183   -7.6371    0.0000 C   0  0  0  0  0  0  0  0  0  0  0  0
    5.9141   -6.8102    0.0000 C   0  0  0  0  0  0  0  0  0  0  0  0
    5.2012   -6.4040    0.0000 C   0  0  0  0  0  0  0  0  0  0  0  0
    5.1974   -5.5790    0.0000 O   0  0  0  0  0  0  0  0  0  0  0  0
   -3.7902   -6.5291    0.0000 S   0  0  0  0  0  0  0  0  0  0  0  0
   -3.7958   -5.7000    0.0000 O   0  0  0  0  0  0  0  0  0  0  0  0
   -3.7782   -7.3538    0.0000 N   0  0  0  0  0  0  0  0  0  0  0  0
   -4.4459   -7.8384    0.0000 C   0  0  1  0  0  0  0  0  0  0  0  0
   -4.4466   -8.6634    0.0000 C   0  0  0  0  0  0  0  0  0  0  0  0
   -5.1614   -9.0753    0.0000 C   0  0  0  0  0  0  0  0  0  0  0  0
   -3.7325   -9.0765    0.0000 C   0  0  0  0  0  0  0  0  0  0  0  0
   -5.1600   -7.4253    0.0000 C   0  0  0  0  0  0  0  0  0  0  0  0
   -5.1593   -6.6003    0.0000 O   0  0  0  0  0  0  0  0  0  0  0  0
   -5.8748   -7.8372    0.0000 O   0  0  0  0  0  0  0  0  0  0  0  0
    5.9100   -5.1632    0.0000 C   0  0  0  0  0  0  0  0  0  0  0  0
    6.6245   -5.5764    0.0000 C   0  0  0  0  0  0  0  0  0  0  0  0
    7.3365   -5.1614    0.0000 C   0  0  0  0  0  0  0  0  0  0  0  0
    7.3332   -4.3355    0.0000 C   0  0  0  0  0  0  0  0  0  0  0  0
    6.6118   -3.9265    0.0000 C   0  0  0  0  0  0  0  0  0  0  0  0
    5.9027   -4.3439    0.0000 C   0  0  0  0  0  0  0  0  0  0  0  0
   -4.6167   -6.5250    0.0000 O   0  0  0  0  0  0  0  0  0  0  0  0
  9 10  2  0  0  0  0
 20 21  2  0  0  0  0
  2  3  1  0  0  0  0
 21 22  1  0  0  0  0
 10 11  1  0  0  0  0
 22 23  2  0  0  0  0
  5  6  2  0  0  0  0
 23 24  1  0  0  0  0
 11 12  2  0  0  0  0
 24 25  2  0  0  0  0
 25 20  1  0  0  0  0
 12  7  1  0  0  0  0
 25 26  1  0  0  0  0
  6  1  1  0  0  0  0
  3 27  1  0  0  0  0
 10 13  1  0  0  0  0
 27 28  2  0  0  0  0
  1  2  2  0  0  0  0
 27 29  1  0  0  0  0
 13 14  1  0  0  0  0
 29 30  1  0  0  0  0
  6  7  1  0  0  0  0
 30 31  1  1  0  0  0
 14 15  1  0  0  0  0
 31 32  1  0  0  0  0
  3  4  2  0  0  0  0
 31 33  1  0  0  0  0
 14 16  2  0  0  0  0
 30 34  1  0  0  0  0
 20 18  1  0  0  0  0
 34 35  2  0  0  0  0
  7  8  2  0  0  0  0
 34 36  1  0  0  0  0
 17 21  1  0  0  0  0
 26 37  1  0  0  0  0
 37 38  2  0  0  0  0
 15 17  1  0  0  0  0
 38 39  1  0  0  0  0
 18 15  2  0  0  0  0
 39 40  2  0  0  0  0
  8  9  1  0  0  0  0
 40 41  1  0  0  0  0
 18 19  1  0  0  0  0
 41 42  2  0  0  0  0
 42 37  1  0  0  0  0
  4  5  1  0  0  0  0
 27 43  2  0  0  0  0
M  END
>  <Mol Weight>
598.666

>  <Formula>
C33H30N2O7S

>  <chembl_id>
CHEMBL538453

$$$$

  Mrv0541 06201412482D          

 43 47  0  0  0  0            999 V2000
   -0.9997  -24.8694    0.0000 C   0  0  0  0  0  0  0  0  0  0  0  0
   -1.7518  -25.2656    0.0000 C   0  0  2  0  0  0  0  0  0  0  0  0
   -1.8915  -26.0583    0.0000 C   0  0  0  0  0  0  0  0  0  0  0  0
   -0.2461  -25.2169    0.0000 N   0  0  0  0  0  0  0  0  0  0  0  0
   -0.0611  -26.0172    0.0000 C   0  0  0  0  0  0  0  0  0  0  0  0
   -0.5937  -26.6886    0.0000 C   0  0  0  0  0  0  0  0  0  0  0  0
   -1.3828  -26.6886    0.0000 C   0  0  0  0  0  0  0  0  0  0  0  0
   -1.0215  -24.0448    0.0000 O   0  0  0  0  0  0  0  0  0  0  0  0
    0.4629  -24.7959    0.0000 C   0  0  0  0  0  0  0  0  0  0  0  0
    1.1824  -25.1995    0.0000 C   0  0  0  0  0  0  0  0  0  0  0  0
    1.8918  -24.7783    0.0000 N   0  0  0  0  0  0  0  0  0  0  0  0
    1.1926  -26.0245    0.0000 O   0  0  0  0  0  0  0  0  0  0  0  0
    2.6448  -25.1067    0.0000 C   0  0  0  0  0  0  0  0  0  0  0  0
    3.1892  -24.4868    0.0000 C   0  0  0  0  0  0  0  0  0  0  0  0
    2.7679  -23.7775    0.0000 C   0  0  0  0  0  0  0  0  0  0  0  0
    1.9632  -23.9591    0.0000 C   0  0  0  0  0  0  0  0  0  0  0  0
   -2.4704  -24.8509    0.0000 N   0  0  0  0  0  0  0  0  0  0  0  0
   -3.1848  -25.2636    0.0000 C   0  0  0  0  0  0  0  0  0  0  0  0
   -3.8994  -24.8512    0.0000 N   0  0  0  0  0  0  0  0  0  0  0  0
   -3.1846  -26.0886    0.0000 N   0  0  0  0  0  0  0  0  0  0  0  0
   -3.8990  -26.5012    0.0000 C   0  0  0  0  0  0  0  0  0  0  0  0
   -4.6135  -26.0889    0.0000 O   0  0  0  0  0  0  0  0  0  0  0  0
   -3.8995  -24.0262    0.0000 C   0  0  0  0  0  0  0  0  0  0  0  0
   -3.1826  -23.6163    0.0000 C   0  0  0  0  0  0  0  0  0  0  0  0
   -3.1825  -22.7921    0.0000 C   0  0  0  0  0  0  0  0  0  0  0  0
   -3.8976  -22.3788    0.0000 C   0  0  0  0  0  0  0  0  0  0  0  0
   -4.6144  -22.7959    0.0000 C   0  0  0  0  0  0  0  0  0  0  0  0
   -4.6110  -23.6188    0.0000 C   0  0  0  0  0  0  0  0  0  0  0  0
   -5.3304  -22.3862    0.0000 C   0  0  0  0  0  0  0  0  0  0  0  0
   -3.8989  -27.3262    0.0000 C   0  0  0  0  0  0  0  0  0  0  0  0
   -4.6133  -27.7401    0.0000 C   0  0  0  0  0  0  0  0  0  0  0  0
   -4.6151  -28.5615    0.0000 C   0  0  0  0  0  0  0  0  0  0  0  0
   -3.9024  -28.9777    0.0000 N   0  0  0  0  0  0  0  0  0  0  0  0
   -3.1862  -28.5663    0.0000 C   0  0  0  0  0  0  0  0  0  0  0  0
   -3.1826  -27.7387    0.0000 C   0  0  0  0  0  0  0  0  0  0  0  0
   -3.9053  -29.8027    0.0000 C   0  0  0  0  0  0  0  0  0  0  0  0
   -4.6212  -30.2126    0.0000 C   0  0  0  0  0  0  0  0  0  0  0  0
   -3.1923  -30.2178    0.0000 O   0  0  0  0  0  0  0  0  0  0  0  0
   -5.3335  -29.8010    0.0000 C   0  0  0  0  0  0  0  0  0  0  0  0
   -6.0489  -30.2102    0.0000 C   0  0  0  0  0  0  0  0  0  0  0  0
   -6.0523  -31.0360    0.0000 C   0  0  0  0  0  0  0  0  0  0  0  0
   -5.3342  -31.4510    0.0000 C   0  0  0  0  0  0  0  0  0  0  0  0
   -4.6218  -31.0393    0.0000 C   0  0  0  0  0  0  0  0  0  0  0  0
 20 21  1  0  0  0  0
  1  4  1  0  0  0  0
 21 22  2  0  0  0  0
 10 11  1  0  0  0  0
 19 23  1  0  0  0  0
  5  6  1  0  0  0  0
 23 24  2  0  0  0  0
 10 12  2  0  0  0  0
 24 25  1  0  0  0  0
 11 13  1  0  0  0  0
 25 26  2  0  0  0  0
  6  7  1  0  0  0  0
 26 27  1  0  0  0  0
  7  3  1  0  0  0  0
 27 28  2  0  0  0  0
 28 23  1  0  0  0  0
  4  5  1  0  0  0  0
 27 29  1  0  0  0  0
 21 30  1  0  0  0  0
 30 31  1  0  0  0  0
 13 14  1  0  0  0  0
 14 15  1  0  0  0  0
 15 16  1  0  0  0  0
 16 11  1  0  0  0  0
  1  8  2  0  0  0  0
 30 35  1  0  0  0  0
 31 32  1  0  0  0  0
 32 33  1  0  0  0  0
 33 34  1  0  0  0  0
 34 35  1  0  0  0  0
  2 17  1  6  0  0  0
 33 36  1  0  0  0  0
  1  2  1  0  0  0  0
 36 37  1  0  0  0  0
 17 18  1  0  0  0  0
 36 38  2  0  0  0  0
  4  9  1  0  0  0  0
 37 39  2  0  0  0  0
 18 19  1  0  0  0  0
 39 40  1  0  0  0  0
  2  3  1  0  0  0  0
 40 41  2  0  0  0  0
 18 20  2  0  0  0  0
 41 42  1  0  0  0  0
  9 10  1  0  0  0  0
 42 43  2  0  0  0  0
 43 37  1  0  0  0  0
M  END
>  <Mol Weight>
586.7244

>  <Formula>
C33H42N6O4

>  <chembl_id>
CHEMBL506308

$$$$

  Mrv0541 06201412482D          

 44 45  0  0  0  0            999 V2000
   14.5426  -15.5984    0.0000 C   0  0  0  0  0  0  0  0  0  0  0  0
   15.2552  -16.8370    0.0000 C   0  0  0  0  0  0  0  0  0  0  0  0
   15.2552  -15.1826    0.0000 C   0  0  0  0  0  0  0  0  0  0  0  0
   15.9721  -15.5984    0.0000 C   0  0  1  0  0  0  0  0  0  0  0  0
   16.6861  -16.8361    0.0000 C   0  0  0  0  0  0  0  0  0  0  0  0
   17.4026  -16.4238    0.0000 C   0  0  0  0  0  0  0  0  0  0  0  0
   16.6841  -15.1816    0.0000 C   0  0  2  0  0  0  0  0  0  0  0  0
   17.4020  -15.5997    0.0000 C   0  0  2  0  0  0  0  0  0  0  0  0
   17.4064  -13.9411    0.0000 C   0  0  0  0  0  0  0  0  0  0  0  0
   16.6832  -14.3532    0.0000 C   0  0  0  0  0  0  0  0  0  0  0  0
   18.1243  -14.3591    0.0000 C   0  0  1  0  0  0  0  0  0  0  0  0
   18.1165  -15.1869    0.0000 C   0  0  1  0  0  0  0  0  0  0  0  0
   18.9013  -15.4502    0.0000 C   0  0  0  0  0  0  0  0  0  0  0  0
   19.3942  -14.7851    0.0000 C   0  0  0  0  0  0  0  0  0  0  0  0
   18.9140  -14.1109    0.0000 C   0  0  2  0  0  0  0  0  0  0  0  0
   15.9641  -14.7757    0.0000 C   0  0  0  0  0  0  0  0  0  0  0  0
   18.1167  -13.5326    0.0000 C   0  0  0  0  0  0  0  0  0  0  0  0
   19.3028  -13.3848    0.0000 C   0  0  1  0  0  0  0  0  0  0  0  0
   20.1251  -13.3589    0.0000 C   0  0  0  0  0  0  0  0  0  0  0  0
   18.8693  -12.6856    0.0000 C   0  0  0  0  0  0  0  0  0  0  0  0
   19.2579  -11.9606    0.0000 O   0  0  0  0  0  0  0  0  0  0  0  0
   18.8243  -11.2615    0.0000 S   0  0  0  0  0  0  0  0  0  0  0  0
   18.2277  -10.6900    0.0000 O   0  5  0  0  0  0  0  0  0  0  0  0
   19.4634  -10.7436    0.0000 O   0  0  0  0  0  0  0  0  0  0  0  0
   18.1881  -11.7830    0.0000 O   0  0  0  0  0  0  0  0  0  0  0  0
   20.5587  -14.0579    0.0000 C   0  0  0  0  0  0  0  0  0  0  0  0
   21.3809  -14.0321    0.0000 C   0  0  0  0  0  0  0  0  0  0  0  0
   21.8145  -14.7312    0.0000 C   0  0  0  0  0  0  0  0  0  0  0  0
   22.6367  -14.7052    0.0000 C   0  0  0  0  0  0  0  0  0  0  0  0
   21.4257  -15.4562    0.0000 C   0  0  0  0  0  0  0  0  0  0  0  0
   19.7346  -14.1085    0.0000 H   0  0  0  0  0  0  0  0  0  0  0  0
   16.6770  -16.0006    0.0000 H   0  0  0  0  0  0  0  0  0  0  0  0
   17.3945  -14.7757    0.0000 H   0  0  0  0  0  0  0  0  0  0  0  0
   18.1075  -16.0052    0.0000 H   0  0  0  0  0  0  0  0  0  0  0  0
   14.5466  -16.4210    0.0000 C   0  0  2  0  0  0  0  0  0  0  0  0
   13.8302  -16.8370    0.0000 O   0  0  0  0  0  0  0  0  0  0  0  0
   13.1178  -16.4256    0.0000 S   0  0  0  0  0  0  0  0  0  0  0  0
   12.4037  -16.0097    0.0000 O   0  5  0  0  0  0  0  0  0  0  0  0
   12.7052  -17.1373    0.0000 O   0  0  0  0  0  0  0  0  0  0  0  0
   13.5336  -15.7159    0.0000 O   0  0  0  0  0  0  0  0  0  0  0  0
   20.0544   -9.9313    0.0000 Na  0  3  0  0  0  0  0  0  0  0  0  0
   11.0830  -16.3022    0.0000 Na  0  3  0  0  0  0  0  0  0  0  0  0
   15.9732  -16.4256    0.0000 C   0  0  1  0  0  0  0  0  0  0  0  0
   15.7597  -17.2225    0.0000 H   0  0  0  0  0  0  0  0  0  0  0  0
  2 43  1  0  0  0  0
 18 19  1  0  0  0  0
  4  3  1  0  0  0  0
 18 20  1  6  0  0  0
  4 43  1  0  0  0  0
 20 21  1  0  0  0  0
 21 22  1  0  0  0  0
  7 10  1  0  0  0  0
 22 23  1  0  0  0  0
  8 12  1  0  0  0  0
 22 24  2  0  0  0  0
 11  9  1  0  0  0  0
 22 25  2  0  0  0  0
  9 10  1  0  0  0  0
 19 26  1  0  0  0  0
 11 12  1  0  0  0  0
 26 27  1  0  0  0  0
 27 28  1  0  0  0  0
 28 29  1  0  0  0  0
  1  3  1  0  0  0  0
 28 30  1  0  0  0  0
  4  7  1  0  0  0  0
 15 31  1  6  0  0  0
 43  5  1  0  0  0  0
  7 32  1  6  0  0  0
 12 13  1  0  0  0  0
  8 33  1  1  0  0  0
 13 14  1  0  0  0  0
 12 34  1  6  0  0  0
 14 15  1  0  0  0  0
  1 35  1  0  0  0  0
  2 35  1  0  0  0  0
 15 11  1  0  0  0  0
 35 36  1  6  0  0  0
  5  6  1  0  0  0  0
 36 37  1  0  0  0  0
  4 16  1  1  0  0  0
 37 38  1  0  0  0  0
  6  8  1  0  0  0  0
 37 39  2  0  0  0  0
 11 17  1  1  0  0  0
 37 40  2  0  0  0  0
  7  8  1  0  0  0  0
 15 18  1  0  0  0  0
 43 44  1  6  0  0  0
M  CHG  4  23  -1  38  -1  41   1  42   1
M  END
>  <Mol Weight>
608.759

>  <Formula>
C27H46Na2O8S2

>  <chembl_id>
CHEMBL500816

$$$$

  Mrv0541 06201412482D          

 41 45  0  0  0  0            999 V2000
   19.2622    1.5431    0.0000 C   0  0  0  0  0  0  0  0  0  0  0  0
   19.9787    1.9565    0.0000 C   0  0  0  0  0  0  0  0  0  0  0  0
   19.9758    2.7870    0.0000 C   0  0  0  0  0  0  0  0  0  0  0  0
   19.2604    3.1961    0.0000 C   0  0  0  0  0  0  0  0  0  0  0  0
   18.5474    1.9560    0.0000 C   0  0  0  0  0  0  0  0  0  0  0  0
   18.5516    2.7834    0.0000 C   0  0  0  0  0  0  0  0  0  0  0  0
   17.8410    3.1984    0.0000 O   0  0  0  0  0  0  0  0  0  0  0  0
   17.8327    1.5436    0.0000 C   0  0  0  0  0  0  0  0  0  0  0  0
   17.1177    1.9632    0.0000 C   0  0  0  0  0  0  0  0  0  0  0  0
   17.1254    2.7876    0.0000 C   0  0  0  0  0  0  0  0  0  0  0  0
   16.4163    3.2047    0.0000 C   0  0  0  0  0  0  0  0  0  0  0  0
   15.6991    2.7985    0.0000 C   0  0  0  0  0  0  0  0  0  0  0  0
   15.6954    1.9709    0.0000 C   0  0  0  0  0  0  0  0  0  0  0  0
   16.4051    1.5575    0.0000 C   0  0  0  0  0  0  0  0  0  0  0  0
   16.4010    0.7325    0.0000 O   0  0  0  0  0  0  0  0  0  0  0  0
   14.9873    3.2155    0.0000 O   0  0  0  0  0  0  0  0  0  0  0  0
   20.6887    3.2022    0.0000 O   0  0  0  0  0  0  0  0  0  0  0  0
   20.6938    1.5451    0.0000 O   0  0  0  0  0  0  0  0  0  0  0  0
   17.8297    0.7186    0.0000 O   0  0  0  0  0  0  0  0  0  0  0  0
   14.9803    1.5608    0.0000 C   0  0  2  0  0  0  0  0  0  0  0  0
   14.2678    1.9784    0.0000 O   0  0  0  0  0  0  0  0  0  0  0  0
   13.5537    1.5724    0.0000 C   0  0  1  0  0  0  0  0  0  0  0  0
   13.5460    0.7471    0.0000 C   0  0  2  0  0  0  0  0  0  0  0  0
   14.2586    0.3294    0.0000 C   0  0  1  0  0  0  0  0  0  0  0  0
   14.9789    0.7371    0.0000 C   0  0  1  0  0  0  0  0  0  0  0  0
   12.8426    1.9906    0.0000 C   0  0  0  0  0  0  0  0  0  0  0  0
   12.8491    2.8156    0.0000 O   0  0  0  0  0  0  0  0  0  0  0  0
   14.2523   -0.4955    0.0000 O   0  0  0  0  0  0  0  0  0  0  0  0
   15.6912    0.3209    0.0000 O   0  0  0  0  0  0  0  0  0  0  0  0
   12.8283    0.3403    0.0000 O   0  0  0  0  0  0  0  0  0  0  0  0
   15.6869   -0.5041    0.0000 C   0  0  0  0  0  0  0  0  0  0  0  0
   16.3993   -0.9203    0.0000 C   0  0  0  0  0  0  0  0  0  0  0  0
   14.9703   -0.9129    0.0000 O   0  0  0  0  0  0  0  0  0  0  0  0
   16.3950   -1.7453    0.0000 C   0  0  0  0  0  0  0  0  0  0  0  0
   17.1073   -2.1615    0.0000 C   0  0  0  0  0  0  0  0  0  0  0  0
   17.1013   -2.9844    0.0000 C   0  0  0  0  0  0  0  0  0  0  0  0
   17.8128   -3.4005    0.0000 C   0  0  0  0  0  0  0  0  0  0  0  0
   18.5304   -2.9917    0.0000 C   0  0  0  0  0  0  0  0  0  0  0  0
   18.5320   -2.1624    0.0000 C   0  0  0  0  0  0  0  0  0  0  0  0
   17.8199   -1.7500    0.0000 C   0  0  0  0  0  0  0  0  0  0  0  0
   19.2432   -3.4069    0.0000 O   0  0  0  0  0  0  0  0  0  0  0  0
 20 21  1  0  0  0  0
  3  4  2  0  0  0  0
  4  6  1  0  0  0  0
  9 10  2  0  0  0  0
  5  6  2  0  0  0  0
 10 11  1  0  0  0  0
  1  2  2  0  0  0  0
 20 25  1  0  0  0  0
 21 22  1  0  0  0  0
 22 23  1  0  0  0  0
 23 24  1  0  0  0  0
 24 25  1  0  0  0  0
 20 13  1  1  0  0  0
 11 12  2  0  0  0  0
 22 26  1  1  0  0  0
  5  1  1  0  0  0  0
 26 27  1  0  0  0  0
 12 13  1  0  0  0  0
 24 28  1  1  0  0  0
  2  3  1  0  0  0  0
 25 29  1  6  0  0  0
 13 14  2  0  0  0  0
 23 30  1  6  0  0  0
 14  9  1  0  0  0  0
 29 31  1  0  0  0  0
 31 32  1  0  0  0  0
 14 15  1  0  0  0  0
 31 33  2  0  0  0  0
  5  8  1  0  0  0  0
 32 34  2  0  0  0  0
 12 16  1  0  0  0  0
 34 35  1  0  0  0  0
  6  7  1  0  0  0  0
 35 36  2  0  0  0  0
  3 17  1  0  0  0  0
 36 37  1  0  0  0  0
  7 10  1  0  0  0  0
 37 38  2  0  0  0  0
  2 18  1  0  0  0  0
 38 39  1  0  0  0  0
  9  8  1  0  0  0  0
 39 40  2  0  0  0  0
 40 35  1  0  0  0  0
  8 19  2  0  0  0  0
 38 41  1  0  0  0  0
M  END
>  <Mol Weight>
568.4824

>  <Formula>
C28H24O13

>  <chembl_id>
CHEMBL499543

$$$$

  Mrv0541 06201412482D          

 42 46  0  0  0  0            999 V2000
   11.0429   -4.0156    0.0000 C   0  0  1  0  0  0  0  0  0  0  0  0
   10.3278   -3.6030    0.0000 C   0  0  0  0  0  0  0  0  0  0  0  0
    9.6169   -4.0137    0.0000 C   0  0  0  0  0  0  0  0  0  0  0  0
    9.6149   -4.8387    0.0000 C   0  0  1  0  0  0  0  0  0  0  0  0
   10.3300   -5.2513    0.0000 C   0  0  0  0  0  0  0  0  0  0  0  0
   11.0471   -4.8388    0.0000 C   0  0  0  0  0  0  0  0  0  0  0  0
   11.7592   -4.4329    0.0000 N   0  0  0  0  0  0  0  0  0  0  0  0
   11.7551   -5.2580    0.0000 C   0  0  0  0  0  0  0  0  0  0  0  0
   12.4674   -5.6742    0.0000 C   0  0  0  0  0  0  0  0  0  0  0  0
   13.1802   -5.2633    0.0000 C   0  0  0  0  0  0  0  0  0  0  0  0
   13.8921   -5.6789    0.0000 C   0  0  0  0  0  0  0  0  0  0  0  0
   13.8883   -6.5048    0.0000 C   0  0  0  0  0  0  0  0  0  0  0  0
   13.1665   -6.9136    0.0000 C   0  0  0  0  0  0  0  0  0  0  0  0
   12.4576   -6.4955    0.0000 C   0  0  0  0  0  0  0  0  0  0  0  0
   14.6002   -6.9220    0.0000 C   0  0  0  0  0  0  0  0  0  0  0  0
   15.3175   -6.5141    0.0000 N   0  0  0  0  0  0  0  0  0  0  0  0
   14.5948   -7.7472    0.0000 O   0  0  0  0  0  0  0  0  0  0  0  0
   16.0294   -6.9316    0.0000 C   0  0  0  0  0  0  0  0  0  0  0  0
   16.6878   -6.4284    0.0000 N   0  0  0  0  0  0  0  0  0  0  0  0
   17.3671   -6.8970    0.0000 N   0  0  0  0  0  0  0  0  0  0  0  0
   17.1314   -7.6878    0.0000 N   0  0  0  0  0  0  0  0  0  0  0  0
   16.3066   -7.7078    0.0000 N   0  0  0  0  0  0  0  0  0  0  0  0
   12.4782   -4.0263    0.0000 C   0  0  0  0  0  0  0  0  0  0  0  0
   12.4846   -3.2049    0.0000 N   0  0  0  0  0  0  0  0  0  0  0  0
   11.7740   -2.7848    0.0000 C   0  0  0  0  0  0  0  0  0  0  0  0
   11.0554   -3.1925    0.0000 C   0  0  0  0  0  0  0  0  0  0  0  0
   13.1894   -4.4449    0.0000 O   0  0  0  0  0  0  0  0  0  0  0  0
   13.2027   -2.7988    0.0000 C   0  0  0  0  0  0  0  0  0  0  0  0
   13.9108   -3.2201    0.0000 C   0  0  0  0  0  0  0  0  0  0  0  0
   14.6285   -2.8146    0.0000 C   0  0  0  0  0  0  0  0  0  0  0  0
   14.6363   -1.9887    0.0000 C   0  0  0  0  0  0  0  0  0  0  0  0
   13.9205   -1.5698    0.0000 C   0  0  0  0  0  0  0  0  0  0  0  0
   13.2057   -1.9778    0.0000 C   0  0  0  0  0  0  0  0  0  0  0  0
   15.3541   -1.5816    0.0000 O   0  0  0  0  0  0  0  0  0  0  0  0
   16.0655   -1.9996    0.0000 C   0  0  0  0  0  0  0  0  0  0  0  0
   16.7729   -2.4112    0.0000 F   0  0  0  0  0  0  0  0  0  0  0  0
   15.6489   -2.7119    0.0000 F   0  0  0  0  0  0  0  0  0  0  0  0
   16.4877   -1.2907    0.0000 F   0  0  0  0  0  0  0  0  0  0  0  0
    8.8998   -5.2505    0.0000 C   0  0  0  0  0  0  0  0  0  0  0  0
    8.1825   -5.6567    0.0000 C   0  0  0  0  0  0  0  0  0  0  0  0
    9.3091   -5.9671    0.0000 C   0  0  0  0  0  0  0  0  0  0  0  0
    8.4901   -4.5345    0.0000 C   0  0  0  0  0  0  0  0  0  0  0  0
 19 20  1  0  0  0  0
 20 21  2  0  0  0  0
 21 22  1  0  0  0  0
 22 18  2  0  0  0  0
  7 23  1  0  0  0  0
  4  5  1  0  0  0  0
 11 12  2  0  0  0  0
  5  6  1  0  0  0  0
 12 13  1  0  0  0  0
  1  7  1  6  0  0  0
 23 24  1  0  0  0  0
 24 25  1  0  0  0  0
 25 26  1  0  0  0  0
 26  1  1  0  0  0  0
 23 27  2  0  0  0  0
 13 14  2  0  0  0  0
 24 28  1  0  0  0  0
 14  9  1  0  0  0  0
 28 29  2  0  0  0  0
  1  2  1  0  0  0  0
 29 30  1  0  0  0  0
 12 15  1  0  0  0  0
 30 31  2  0  0  0  0
  7  8  1  0  0  0  0
 31 32  1  0  0  0  0
 15 16  1  0  0  0  0
 32 33  2  0  0  0  0
 33 28  1  0  0  0  0
  1  6  1  0  0  0  0
 31 34  1  0  0  0  0
 15 17  2  0  0  0  0
 34 35  1  0  0  0  0
  8  9  1  0  0  0  0
 35 36  1  0  0  0  0
 16 18  1  0  0  0  0
 35 37  1  0  0  0  0
 18 19  1  0  0  0  0
 35 38  1  0  0  0  0
  2  3  1  0  0  0  0
  4 39  1  1  0  0  0
  9 10  2  0  0  0  0
 39 40  1  0  0  0  0
  3  4  1  0  0  0  0
 39 41  1  0  0  0  0
 10 11  1  0  0  0  0
 39 42  1  0  0  0  0
M  END
>  <Mol Weight>
585.6206

>  <Formula>
C29H34F3N7O3

>  <chembl_id>
CHEMBL502203

$$$$

  Mrv0541 06201412482D          

 39 42  0  0  0  0            999 V2000
   -2.9306  -16.0375    0.0000 C   0  0  0  0  0  0  0  0  0  0  0  0
   -2.9318  -16.8648    0.0000 C   0  0  0  0  0  0  0  0  0  0  0  0
   -2.2169  -17.2777    0.0000 C   0  0  0  0  0  0  0  0  0  0  0  0
   -1.5005  -16.8644    0.0000 C   0  0  0  0  0  0  0  0  0  0  0  0
   -1.5034  -16.0338    0.0000 C   0  0  0  0  0  0  0  0  0  0  0  0
   -2.2187  -15.6247    0.0000 C   0  0  0  0  0  0  0  0  0  0  0  0
   -0.7904  -15.6186    0.0000 S   0  0  0  0  0  0  0  0  0  0  0  0
   -0.0744  -16.0284    0.0000 C   0  0  0  0  0  0  0  0  0  0  0  0
   -0.0747  -16.8511    0.0000 C   0  0  0  0  0  0  0  0  0  0  0  0
    0.6405  -17.2608    0.0000 C   0  0  0  0  0  0  0  0  0  0  0  0
    1.3544  -16.8456    0.0000 C   0  0  0  0  0  0  0  0  0  0  0  0
    1.3486  -16.0163    0.0000 C   0  0  0  0  0  0  0  0  0  0  0  0
    0.6329  -15.6103    0.0000 C   0  0  0  0  0  0  0  0  0  0  0  0
    0.6255  -14.7854    0.0000 C   0  0  0  0  0  0  0  0  0  0  0  0
    0.6208  -13.9583    0.0000 F   0  0  0  0  0  0  0  0  0  0  0  0
   -0.1995  -14.7914    0.0000 F   0  0  0  0  0  0  0  0  0  0  0  0
    1.4505  -14.7814    0.0000 F   0  0  0  0  0  0  0  0  0  0  0  0
    2.0601  -15.5986    0.0000 C   0  0  0  0  0  0  0  0  0  0  0  0
    2.7708  -15.1792    0.0000 F   0  0  0  0  0  0  0  0  0  0  0  0
    2.4786  -16.3096    0.0000 F   0  0  0  0  0  0  0  0  0  0  0  0
    2.0710  -17.2544    0.0000 C   0  0  0  0  0  0  0  0  0  0  0  0
    2.7833  -16.8383    0.0000 C   0  0  0  0  0  0  0  0  0  0  0  0
    3.4999  -17.2471    0.0000 C   0  0  0  0  0  0  0  0  0  0  0  0
    4.2122  -16.8310    0.0000 O   0  0  0  0  0  0  0  0  0  0  0  0
    3.5041  -18.0721    0.0000 N   0  0  0  0  0  0  0  0  0  0  0  0
    2.7889  -18.4825    0.0000 C   0  0  0  0  0  0  0  0  0  0  0  0
    2.7911  -19.3038    0.0000 C   0  0  0  0  0  0  0  0  0  0  0  0
    3.5058  -19.7166    0.0000 O   0  0  0  0  0  0  0  0  0  0  0  0
    4.2200  -19.3017    0.0000 C   0  0  0  0  0  0  0  0  0  0  0  0
    4.2195  -18.4740    0.0000 C   0  0  0  0  0  0  0  0  0  0  0  0
    2.0542  -14.7708    0.0000 F   0  0  0  0  0  0  0  0  0  0  0  0
   -2.2212  -14.7997    0.0000 O   0  0  0  0  0  0  0  0  0  0  0  0
   -2.9369  -14.3893    0.0000 C   0  0  0  0  0  0  0  0  0  0  0  0
   -2.9394  -13.5643    0.0000 C   0  0  0  0  0  0  0  0  0  0  0  0
   -2.2242  -13.1545    0.0000 C   0  0  0  0  0  0  0  0  0  0  0  0
   -2.2264  -12.3302    0.0000 C   0  0  0  0  0  0  0  0  0  0  0  0
   -2.9426  -11.9190    0.0000 C   0  0  0  0  0  0  0  0  0  0  0  0
   -3.6582  -12.3381    0.0000 C   0  0  0  0  0  0  0  0  0  0  0  0
   -3.6526  -13.1610    0.0000 C   0  0  0  0  0  0  0  0  0  0  0  0
 18 19  1  0  0  0  0
  4  5  1  0  0  0  0
 18 20  1  0  0  0  0
  9 10  1  0  0  0  0
 11 21  1  0  0  0  0
  2  3  1  0  0  0  0
 21 22  2  0  0  0  0
 10 11  2  0  0  0  0
 22 23  1  0  0  0  0
  5  6  2  0  0  0  0
 23 24  2  0  0  0  0
 11 12  1  0  0  0  0
 23 25  1  0  0  0  0
 25 26  1  0  0  0  0
  6  1  1  0  0  0  0
 12 13  2  0  0  0  0
 13  8  1  0  0  0  0
  1  2  2  0  0  0  0
 13 14  1  0  0  0  0
 25 30  1  0  0  0  0
 26 27  1  0  0  0  0
 27 28  1  0  0  0  0
 28 29  1  0  0  0  0
 29 30  1  0  0  0  0
  5  7  1  0  0  0  0
 18 31  1  0  0  0  0
 14 15  1  0  0  0  0
  6 32  1  0  0  0  0
  3  4  2  0  0  0  0
 32 33  1  0  0  0  0
 14 16  1  0  0  0  0
 33 34  1  0  0  0  0
  7  8  1  0  0  0  0
 34 35  2  0  0  0  0
 14 17  1  0  0  0  0
 35 36  1  0  0  0  0
 36 37  2  0  0  0  0
 12 18  1  0  0  0  0
 37 38  1  0  0  0  0
  8  9  2  0  0  0  0
 38 39  2  0  0  0  0
 39 34  1  0  0  0  0
M  END
>  <Mol Weight>
567.543

>  <Formula>
C28H23F6NO3S

>  <chembl_id>
CHEMBL500111

$$$$

  Mrv0541 06201412482D          

 47 53  0  0  0  0            999 V2000
   -4.6856    0.1329    0.0000 C   0  0  0  0  0  0  0  0  0  0  0  0
   -4.6856   -0.6969    0.0000 N   0  0  0  0  0  0  0  0  0  0  0  0
   -3.9710   -1.1095    0.0000 C   0  0  1  0  0  0  0  0  0  0  0  0
   -3.9710    0.5502    0.0000 C   0  0  0  0  0  0  0  0  0  0  0  0
   -3.2517    0.1329    0.0000 C   0  0  0  0  0  0  0  0  0  0  0  0
   -3.2533   -0.6951    0.0000 C   0  0  0  0  0  0  0  0  0  0  0  0
   -2.5382   -1.1086    0.0000 C   0  0  0  0  0  0  0  0  0  0  0  0
   -1.8210   -0.6955    0.0000 C   0  0  0  0  0  0  0  0  0  0  0  0
   -1.8233    0.1358    0.0000 C   0  0  0  0  0  0  0  0  0  0  0  0
   -2.5391    0.5457    0.0000 C   0  0  0  0  0  0  0  0  0  0  0  0
   -5.4005   -1.1095    0.0000 C   0  0  0  0  0  0  0  0  0  0  0  0
   -3.9710   -1.9348    0.0000 C   0  0  0  0  0  0  0  0  0  0  0  0
   -3.5670   -2.6408    0.0000 C   0  0  0  0  0  0  0  0  0  0  0  0
   -3.9795   -3.3432    0.0000 C   0  0  0  0  0  0  0  0  0  0  0  0
   -3.5762   -4.0489    0.0000 C   0  0  0  0  0  0  0  0  0  0  0  0
   -2.7618   -4.0526    0.0000 C   0  0  0  0  0  0  0  0  0  0  0  0
   -2.3524   -3.3447    0.0000 C   0  0  0  0  0  0  0  0  0  0  0  0
   -2.7581   -2.6419    0.0000 C   0  0  0  0  0  0  0  0  0  0  0  0
   -1.1099    0.5508    0.0000 O   0  0  0  0  0  0  0  0  0  0  0  0
   -1.1126    1.3760    0.0000 C   0  0  0  0  0  0  0  0  0  0  0  0
   -1.1059   -1.1073    0.0000 O   0  0  0  0  0  0  0  0  0  0  0  0
   -0.3915   -0.6940    0.0000 C   0  0  0  0  0  0  0  0  0  0  0  0
    1.0340    0.1286    0.0000 C   0  0  0  0  0  0  0  0  0  0  0  0
    0.3138    0.5402    0.0000 C   0  0  0  0  0  0  0  0  0  0  0  0
   -0.3970    0.1253    0.0000 C   0  0  0  0  0  0  0  0  0  0  0  0
   -0.4035    0.9537    0.0000 O   0  0  0  0  0  0  0  0  0  0  0  0
   -0.1925    1.7515    0.0000 C   0  0  0  0  0  0  0  0  0  0  0  0
    0.3101    1.3655    0.0000 O   0  0  0  0  0  0  0  0  0  0  0  0
    1.0229    1.7815    0.0000 C   0  0  0  0  0  0  0  0  0  0  0  0
    1.0343   -0.6977    0.0000 C   0  0  0  0  0  0  0  0  0  0  0  0
    0.3191   -1.1063    0.0000 C   0  0  0  0  0  0  0  0  0  0  0  0
    0.3153   -1.9255    0.0000 C   0  0  2  0  0  0  0  0  0  0  0  0
    1.0253   -2.3422    0.0000 N   0  0  0  0  0  0  0  0  0  0  0  0
    1.7406   -1.9336    0.0000 C   0  0  0  0  0  0  0  0  0  0  0  0
    1.7460   -1.1082    0.0000 C   0  0  0  0  0  0  0  0  0  0  0  0
    1.0205   -3.1675    0.0000 C   0  0  0  0  0  0  0  0  0  0  0  0
   -0.4017   -2.3339    0.0000 C   0  0  0  0  0  0  0  0  0  0  0  0
   -0.4080   -3.1589    0.0000 C   0  0  0  0  0  0  0  0  0  0  0  0
   -1.1281   -3.5640    0.0000 C   0  0  0  0  0  0  0  0  0  0  0  0
   -1.1347   -4.3884    0.0000 C   0  0  0  0  0  0  0  0  0  0  0  0
   -0.4228   -4.8072    0.0000 C   0  0  0  0  0  0  0  0  0  0  0  0
    0.2972   -4.3958    0.0000 C   0  0  0  0  0  0  0  0  0  0  0  0
    0.3004   -3.5728    0.0000 C   0  0  0  0  0  0  0  0  0  0  0  0
   -2.3510   -4.7683    0.0000 O   0  0  0  0  0  0  0  0  0  0  0  0
   -0.4281   -5.6325    0.0000 O   0  0  0  0  0  0  0  0  0  0  0  0
    0.3072   -2.7463    0.0000 H   0  0  0  0  0  0  0  0  0  0  0  0
   -3.3927   -1.6919    0.0000 H   0  0  0  0  0  0  0  0  0  0  0  0
 22 31  2  0  0  0  0
 30 23  2  0  0  0  0
  2 11  1  0  0  0  0
 23 24  1  0  0  0  0
  1  2  1  0  0  0  0
 24 25  2  0  0  0  0
 25 22  1  0  0  0  0
  3 12  1  0  0  0  0
 25 26  1  0  0  0  0
  5  6  2  0  0  0  0
 26 27  1  0  0  0  0
 12 13  1  0  0  0  0
 24 28  1  0  0  0  0
  1  4  1  0  0  0  0
 28 29  1  0  0  0  0
 30 31  1  0  0  0  0
 13 14  2  0  0  0  0
  6  7  1  0  0  0  0
 14 15  1  0  0  0  0
  2  3  1  0  0  0  0
 15 16  2  0  0  0  0
  7  8  2  0  0  0  0
 30 35  1  0  0  0  0
 31 32  1  0  0  0  0
 32 33  1  0  0  0  0
 33 34  1  0  0  0  0
 34 35  1  0  0  0  0
 16 17  1  0  0  0  0
 33 36  1  0  0  0  0
  3  6  1  0  0  0  0
 32 37  1  0  0  0  0
 17 18  2  0  0  0  0
 37 38  1  0  0  0  0
 18 13  1  0  0  0  0
 38 39  2  0  0  0  0
  8  9  1  0  0  0  0
 39 40  1  0  0  0  0
  9 19  1  0  0  0  0
 40 41  2  0  0  0  0
  5  4  1  0  0  0  0
 41 42  1  0  0  0  0
 19 20  1  0  0  0  0
 42 43  2  0  0  0  0
 43 38  1  0  0  0  0
  9 10  2  0  0  0  0
 16 44  1  0  0  0  0
 44 40  1  0  0  0  0
  8 21  1  0  0  0  0
 41 45  1  0  0  0  0
 10  5  1  0  0  0  0
 32 46  1  1  0  0  0
 21 22  1  0  0  0  0
  3 47  1  6  0  0  0
M  END
>  <Mol Weight>
608.7233

>  <Formula>
C37H40N2O6

>  <chembl_id>
CHEMBL507540

$$$$

  Mrv0541 06201412482D          

 45 49  0  0  0  0            999 V2000
   -1.1878   -0.8343    0.0000 C   0  0  0  0  0  0  0  0  0  0  0  0
   -0.4824   -1.2667    0.0000 C   0  0  0  0  0  0  0  0  0  0  0  0
    0.2426   -0.8721    0.0000 C   0  0  0  0  0  0  0  0  0  0  0  0
    0.2635   -0.0452    0.0000 C   0  0  0  0  0  0  0  0  0  0  0  0
   -0.4467    0.3854    0.0000 C   0  0  0  0  0  0  0  0  0  0  0  0
   -1.1688   -0.0117    0.0000 C   0  0  0  0  0  0  0  0  0  0  0  0
   -1.9122   -1.2291    0.0000 N   0  0  0  0  0  0  0  0  0  0  0  0
   -2.6163   -0.7991    0.0000 C   0  0  0  0  0  0  0  0  0  0  0  0
   -3.3407   -1.1938    0.0000 C   0  0  0  0  0  0  0  0  0  0  0  0
   -4.0448   -0.7638    0.0000 N   0  0  0  0  0  0  0  0  0  0  0  0
   -4.7692   -1.1585    0.0000 C   0  0  0  0  0  0  0  0  0  0  0  0
   -5.4733   -0.7285    0.0000 N   0  0  0  0  0  0  0  0  0  0  0  0
   -4.7896   -1.9833    0.0000 N   0  0  0  0  0  0  0  0  0  0  0  0
    0.9874    0.3505    0.0000 C   0  0  0  0  0  0  0  0  0  0  0  0
    1.6921   -0.0786    0.0000 N   0  0  0  0  0  0  0  0  0  0  0  0
    1.0067    1.1753    0.0000 O   0  0  0  0  0  0  0  0  0  0  0  0
    2.4160    0.3171    0.0000 C   0  0  0  0  0  0  0  0  0  0  0  0
    3.1180   -0.1160    0.0000 C   0  0  0  0  0  0  0  0  0  0  0  0
    3.8414    0.2790    0.0000 C   0  0  0  0  0  0  0  0  0  0  0  0
    3.8612    1.1046    0.0000 C   0  0  0  0  0  0  0  0  0  0  0  0
    3.1515    1.5337    0.0000 C   0  0  0  0  0  0  0  0  0  0  0  0
    2.4310    1.1362    0.0000 C   0  0  0  0  0  0  0  0  0  0  0  0
    4.5845    1.5013    0.0000 N   0  0  0  0  0  0  0  0  0  0  0  0
    4.6027    2.3261    0.0000 C   0  0  0  0  0  0  0  0  0  0  0  0
    5.3261    2.7228    0.0000 C   0  0  0  0  0  0  0  0  0  0  0  0
    5.2898    1.0732    0.0000 C   0  0  0  0  0  0  0  0  0  0  0  0
    5.2716    0.2484    0.0000 C   0  0  0  0  0  0  0  0  0  0  0  0
    6.0293    2.2940    0.0000 C   0  0  0  0  0  0  0  0  0  0  0  0
    6.7522    2.6900    0.0000 C   0  0  0  0  0  0  0  0  0  0  0  0
    6.7708    3.5157    0.0000 C   0  0  0  0  0  0  0  0  0  0  0  0
    6.0606    3.9437    0.0000 C   0  0  0  0  0  0  0  0  0  0  0  0
    5.3406    3.5453    0.0000 C   0  0  0  0  0  0  0  0  0  0  0  0
    4.5490   -0.1440    0.0000 C   0  0  0  0  0  0  0  0  0  0  0  0
    4.5305   -0.9681    0.0000 C   0  0  0  0  0  0  0  0  0  0  0  0
    5.2363   -1.3970    0.0000 C   0  0  0  0  0  0  0  0  0  0  0  0
    5.9621   -0.9960    0.0000 C   0  0  0  0  0  0  0  0  0  0  0  0
    5.9771   -0.1733    0.0000 C   0  0  0  0  0  0  0  0  0  0  0  0
   -0.5026   -2.0894    0.0000 C   0  0  0  0  0  0  0  0  0  0  0  0
   -1.2291   -2.4828    0.0000 C   0  0  0  0  0  0  0  0  0  0  0  0
   -1.2506   -3.3067    0.0000 C   0  0  0  0  0  0  0  0  0  0  0  0
   -0.5464   -3.7383    0.0000 C   0  0  0  0  0  0  0  0  0  0  0  0
    0.1809   -3.3399    0.0000 C   0  0  0  0  0  0  0  0  0  0  0  0
    0.1989   -2.5172    0.0000 C   0  0  0  0  0  0  0  0  0  0  0  0
    7.4572    2.2615    0.0000 C   0  0  0  0  0  0  0  0  0  0  0  0
    6.6688   -1.4216    0.0000 C   0  0  0  0  0  0  0  0  0  0  0  0
 22 17  1  0  0  0  0
 10 11  1  0  0  0  0
 20 23  1  0  0  0  0
  5  6  2  0  0  0  0
 23 24  1  0  0  0  0
 11 12  1  0  0  0  0
 24 25  1  0  0  0  0
  6  1  1  0  0  0  0
 23 26  1  0  0  0  0
 11 13  2  0  0  0  0
 26 27  1  0  0  0  0
  1  2  2  0  0  0  0
 25 28  2  0  0  0  0
  4 14  1  0  0  0  0
 28 29  1  0  0  0  0
  1  7  1  0  0  0  0
 29 30  2  0  0  0  0
 14 15  1  0  0  0  0
 30 31  1  0  0  0  0
  3  4  2  0  0  0  0
 31 32  2  0  0  0  0
 32 25  1  0  0  0  0
 14 16  2  0  0  0  0
 27 33  2  0  0  0  0
  7  8  1  0  0  0  0
 33 34  1  0  0  0  0
 15 17  1  0  0  0  0
 34 35  2  0  0  0  0
 35 36  1  0  0  0  0
 17 18  2  0  0  0  0
 36 37  2  0  0  0  0
 37 27  1  0  0  0  0
  8  9  1  0  0  0  0
 18 19  1  0  0  0  0
 38 39  2  0  0  0  0
  4  5  1  0  0  0  0
 39 40  1  0  0  0  0
 19 20  2  0  0  0  0
 40 41  2  0  0  0  0
  9 10  1  0  0  0  0
 41 42  1  0  0  0  0
 20 21  1  0  0  0  0
 42 43  2  0  0  0  0
 43 38  1  0  0  0  0
  2 38  1  0  0  0  0
  2  3  1  0  0  0  0
 29 44  1  0  0  0  0
 21 22  2  0  0  0  0
 36 45  1  0  0  0  0
M  END
>  <Mol Weight>
596.7638

>  <Formula>
C38H40N6O

>  <chembl_id>
CHEMBL499846

$$$$

  Mrv0541 06201412482D          

 48 53  0  0  0  0            999 V2000
    9.7527   -1.9774    0.0000 O   0  0  0  0  0  0  0  0  0  0  0  0
    9.0398   -1.5661    0.0000 C   0  0  1  0  0  0  0  0  0  0  0  0
    8.3273   -1.9779    0.0000 C   0  0  2  0  0  0  0  0  0  0  0  0
    8.3276   -2.8009    0.0000 O   0  0  0  0  0  0  0  0  0  0  0  0
    7.6144   -1.5666    0.0000 C   0  0  2  0  0  0  0  0  0  0  0  0
    6.9018   -1.9785    0.0000 O   0  0  0  0  0  0  0  0  0  0  0  0
    7.6140   -0.7437    0.0000 C   0  0  1  0  0  0  0  0  0  0  0  0
    6.9011   -0.3325    0.0000 O   0  0  0  0  0  0  0  0  0  0  0  0
    8.3266   -0.3319    0.0000 C   0  0  1  0  0  0  0  0  0  0  0  0
    9.0395   -0.7431    0.0000 O   0  0  0  0  0  0  0  0  0  0  0  0
    8.3263    0.4910    0.0000 C   0  0  0  0  0  0  0  0  0  0  0  0
    9.0369   -2.3676    0.0000 H   0  0  0  0  0  0  0  0  0  0  0  0
   10.4610   -0.7361    0.0000 C   0  0  0  0  0  0  0  0  0  0  0  0
   10.4610   -1.5637    0.0000 C   0  0  1  0  0  0  0  0  0  0  0  0
   11.1738   -1.9752    0.0000 C   0  0  0  0  0  0  0  0  0  0  0  0
   11.1738   -0.3201    0.0000 C   0  0  0  0  0  0  0  0  0  0  0  0
   11.8910   -0.7361    0.0000 C   0  0  1  0  0  0  0  0  0  0  0  0
   11.8921   -1.5637    0.0000 C   0  0  1  0  0  0  0  0  0  0  0  0
   12.6054   -1.9743    0.0000 C   0  0  0  0  0  0  0  0  0  0  0  0
   13.3222   -1.5618    0.0000 C   0  0  0  0  0  0  0  0  0  0  0  0
   12.6033   -0.3191    0.0000 C   0  0  2  0  0  0  0  0  0  0  0  0
   13.3215   -0.7374    0.0000 C   0  0  2  0  0  0  0  0  0  0  0  0
   13.3259    0.9219    0.0000 C   0  0  0  0  0  0  0  0  0  0  0  0
   12.6024    0.5096    0.0000 C   0  0  0  0  0  0  0  0  0  0  0  0
   14.0441    0.5037    0.0000 C   0  0  1  0  0  0  0  0  0  0  0  0
   14.0364   -0.3292    0.0000 C   0  0  1  0  0  0  0  0  0  0  0  0
   14.7499   -0.7499    0.0000 C   0  0  0  0  0  0  0  0  0  0  0  0
   15.4756   -0.3425    0.0000 C   0  0  0  0  0  0  0  0  0  0  0  0
   11.8830    0.0869    0.0000 C   0  0  0  0  0  0  0  0  0  0  0  0
   13.3140    0.0869    0.0000 C   0  0  0  0  0  0  0  0  0  0  0  0
   16.1900    0.0777    0.0000 C   0  0  0  0  0  0  0  0  0  0  0  0
   16.1901   -0.7382    0.0000 O   0  0  0  0  0  0  0  0  0  0  0  0
   10.4565   -2.3821    0.0000 C   0  0  0  0  0  0  0  0  0  0  0  0
   11.1652   -2.7982    0.0000 C   0  0  0  0  0  0  0  0  0  0  0  0
   11.8830   -2.3821    0.0000 H   0  0  0  0  0  0  0  0  0  0  0  0
   12.5963   -1.1385    0.0000 H   0  0  0  0  0  0  0  0  0  0  0  0
   14.0273   -1.1476    0.0000 C   0  0  0  0  0  0  0  0  0  0  0  0
   14.7589    0.0960    0.0000 H   0  0  0  0  0  0  0  0  0  0  0  0
   14.7629    0.9155    0.0000 C   0  0  2  0  0  0  0  0  0  0  0  0
   15.4832    0.4881    0.0000 C   0  0  2  0  0  0  0  0  0  0  0  0
   16.1124    1.0410    0.0000 C   0  0  0  0  0  0  0  0  0  0  0  0
   15.7809    1.8103    0.0000 C   0  0  0  0  0  0  0  0  0  0  0  0
   14.9470    1.7327    0.0000 C   0  0  1  0  0  0  0  0  0  0  0  0
   14.4036    2.3508    0.0000 C   0  0  0  0  0  0  0  0  0  0  0  0
   14.6673    3.1304    0.0000 C   0  0  0  0  0  0  0  0  0  0  0  0
   13.5966    2.1894    0.0000 C   0  0  0  0  0  0  0  0  0  0  0  0
   14.0365    1.3305    0.0000 H   0  0  0  0  0  0  0  0  0  0  0  0
   16.9031    0.4884    0.0000 O   0  0  0  0  0  0  0  0  0  0  0  0
 21 24  1  0  0  0  0
 22 26  1  0  0  0  0
 25 23  1  0  0  0  0
 23 24  1  0  0  0  0
 25 26  1  0  0  0  0
  2 12  1  6  0  0  0
 13 14  1  0  0  0  0
  2  1  1  0  0  0  0
  2  3  1  0  0  0  0
 25 39  1  0  0  0  0
 26 27  1  0  0  0  0
 27 28  1  0  0  0  0
 28 40  1  0  0  0  0
 14  1  1  1  0  0  0
  3  4  1  6  0  0  0
 17 29  1  1  0  0  0
  3  5  1  0  0  0  0
 22 30  1  1  0  0  0
 13 16  1  0  0  0  0
 40 31  1  1  0  0  0
 14 15  1  0  0  0  0
 31 32  1  0  0  0  0
 15 18  1  0  0  0  0
 15 33  1  0  0  0  0
 17 16  1  0  0  0  0
 15 34  1  0  0  0  0
 17 18  1  0  0  0  0
 18 35  1  6  0  0  0
  5  6  1  6  0  0  0
 21 36  1  6  0  0  0
  5  7  1  0  0  0  0
 26 37  1  6  0  0  0
  7  8  1  1  0  0  0
 39 38  1  6  0  0  0
 39 40  1  0  0  0  0
  7  9  1  0  0  0  0
 17 21  1  0  0  0  0
 18 19  1  0  0  0  0
 19 20  1  0  0  0  0
 20 22  1  0  0  0  0
 40 41  1  0  0  0  0
 41 42  1  0  0  0  0
 42 43  1  0  0  0  0
 43 39  1  0  0  0  0
 21 22  1  0  0  0  0
 43 44  1  6  0  0  0
  9 10  1  0  0  0  0
 44 45  1  0  0  0  0
  9 11  1  6  0  0  0
 44 46  2  0  0  0  0
  2 10  1  0  0  0  0
 25 47  1  1  0  0  0
 31 48  2  0  0  0  0
M  END
>  <Mol Weight>
602.8415

>  <Formula>
C36H58O7

>  <chembl_id>
CHEMBL500370

$$$$

  Mrv0541 06201412482D          

 43 45  0  0  0  0            999 V2000
   -2.2571  -12.7421    0.0000 C   0  0  0  0  0  0  0  0  0  0  0  0
   -2.2571  -13.5705    0.0000 C   0  0  0  0  0  0  0  0  0  0  0  0
   -1.5409  -13.9847    0.0000 C   0  0  0  0  0  0  0  0  0  0  0  0
   -0.8248  -13.5705    0.0000 C   0  0  0  0  0  0  0  0  0  0  0  0
   -0.8248  -12.7421    0.0000 C   0  0  0  0  0  0  0  0  0  0  0  0
   -1.5409  -12.3280    0.0000 C   0  0  0  0  0  0  0  0  0  0  0  0
   -1.5421  -11.5042    0.0000 O   0  0  0  0  0  0  0  0  0  0  0  0
   -1.5421  -14.8084    0.0000 O   0  0  0  0  0  0  0  0  0  0  0  0
   -2.9697  -12.3343    0.0000 C   0  0  0  0  0  0  0  0  0  0  0  0
   -2.9716  -11.5106    0.0000 C   0  0  1  0  0  0  0  0  0  0  0  0
   -3.6887  -11.0982    0.0000 C   0  0  0  0  0  0  0  0  0  0  0  0
   -2.2611  -11.0947    0.0000 C   0  0  0  0  0  0  0  0  0  0  0  0
   -2.2631  -10.2709    0.0000 C   0  0  1  0  0  0  0  0  0  0  0  0
   -1.5479   -9.8597    0.0000 C   0  0  0  0  0  0  0  0  0  0  0  0
   -2.9756   -9.8632    0.0000 O   0  0  0  0  0  0  0  0  0  0  0  0
   -1.5499   -9.0360    0.0000 C   0  0  2  0  0  0  0  0  0  0  0  0
   -0.8395   -8.6200    0.0000 C   0  0  0  0  0  0  0  0  0  0  0  0
   -2.2671   -8.6235    0.0000 C   0  0  0  0  0  0  0  0  0  0  0  0
   -0.1223   -9.0325    0.0000 C   0  0  0  0  0  0  0  0  0  0  0  0
    0.5882   -8.6166    0.0000 C   0  0  1  0  0  0  0  0  0  0  0  0
   -0.1203   -9.8562    0.0000 C   0  0  0  0  0  0  0  0  0  0  0  0
    1.4101   -8.6142    0.0000 C   0  0  2  0  0  0  0  0  0  0  0  0
    2.1221   -9.0284    0.0000 C   0  0  0  0  0  0  0  0  0  0  0  0
    1.6221   -7.8190    0.0000 O   0  0  0  0  0  0  0  0  0  0  0  0
    0.3738   -7.8220    0.0000 O   0  0  0  0  0  0  0  0  0  0  0  0
   -0.4219   -7.6119    0.0000 C   0  0  0  0  0  0  0  0  0  0  0  0
   -0.6408   -6.8126    0.0000 O   0  0  0  0  0  0  0  0  0  0  0  0
   -1.0033   -8.1965    0.0000 N   0  0  0  0  0  0  0  0  0  0  0  0
    2.4219   -7.6066    0.0000 C   0  0  0  0  0  0  0  0  0  0  0  0
    2.1200   -9.8521    0.0000 C   0  0  0  0  0  0  0  0  0  0  0  0
    1.4028  -10.2599    0.0000 C   0  0  0  0  0  0  0  0  0  0  0  0
    1.4008  -11.0836    0.0000 C   0  0  0  0  0  0  0  0  0  0  0  0
    2.1159  -11.4995    0.0000 C   0  0  0  0  0  0  0  0  0  0  0  0
   -0.1082  -12.3333    0.0000 N   0  0  0  0  0  0  0  0  0  0  0  0
   -0.1073  -11.5096    0.0000 C   0  0  0  0  0  0  0  0  0  0  0  0
   -0.8231  -11.0947    0.0000 O   0  0  0  0  0  0  0  0  0  0  0  0
   -3.6996  -10.2848    0.0000 C   0  0  0  0  0  0  0  0  0  0  0  0
   -2.9827  -13.9892    0.0000 N   0  0  0  0  0  0  0  0  0  0  0  0
   -3.7874  -13.7727    0.0000 C   0  0  0  0  0  0  0  0  0  0  0  0
   -4.0045  -14.5818    0.0000 C   0  0  0  0  0  0  0  0  0  0  0  0
   -3.1955  -14.7989    0.0000 C   0  0  0  0  0  0  0  0  0  0  0  0
   -2.2757   -9.4379    0.0000 N   0  0  0  0  0  0  0  0  0  0  0  0
   -2.6993   -8.7119    0.0000 O   0  0  0  0  0  0  0  0  0  0  0  0
  3  4  1  0  0  0  0
 20 22  1  0  0  0  0
 10 11  1  1  0  0  0
 22 23  1  0  0  0  0
  4  5  2  0  0  0  0
 22 24  1  1  0  0  0
 10 12  1  0  0  0  0
 20 25  1  6  0  0  0
  5  6  1  0  0  0  0
 25 26  1  0  0  0  0
 12 13  1  0  0  0  0
 26 27  2  0  0  0  0
 26 28  1  0  0  0  0
 13 14  1  0  0  0  0
 24 29  1  0  0  0  0
  6  7  2  0  0  0  0
 23 30  2  0  0  0  0
 13 15  1  6  0  0  0
 30 31  1  0  0  0  0
  1  2  2  0  0  0  0
 31 32  2  0  0  0  0
 14 16  1  0  0  0  0
 32 33  1  0  0  0  0
  3  8  2  0  0  0  0
  5 34  1  0  0  0  0
 16 17  1  0  0  0  0
 34 35  1  0  0  0  0
  1  6  1  0  0  0  0
 35 36  2  0  0  0  0
 35 32  1  0  0  0  0
 16 18  1  1  0  0  0
 15 37  1  0  0  0  0
  1  9  1  0  0  0  0
  2 38  1  0  0  0  0
 38 39  1  0  0  0  0
 17 19  2  0  0  0  0
  2  3  1  0  0  0  0
 19 20  1  0  0  0  0
 39 40  1  0  0  0  0
 40 41  1  0  0  0  0
 41 38  1  0  0  0  0
  9 10  1  0  0  0  0
 14 42  2  0  0  0  0
 19 21  1  0  0  0  0
 42 43  1  0  0  0  0
M  END
>  <Mol Weight>
598.6872

>  <Formula>
C31H42N4O8

>  <chembl_id>
CHEMBL501969

$$$$

  Mrv0541 06201412482D          

 44 51  0  0  0  0            999 V2000
   11.4893   -9.2397    0.0000 C   0  0  2  0  0  0  0  0  0  0  0  0
   11.4893  -10.0649    0.0000 C   0  0  1  0  0  0  0  0  0  0  0  0
   12.2015  -10.4733    0.0000 C   0  0  2  0  0  0  0  0  0  0  0  0
   12.9137  -10.0649    0.0000 C   0  0  1  0  0  0  0  0  0  0  0  0
   12.9137   -9.2397    0.0000 C   0  0  0  0  0  0  0  0  0  0  0  0
   12.2015   -8.8229    0.0000 C   0  0  0  0  0  0  0  0  0  0  0  0
   10.0649   -9.2397    0.0000 C   0  0  0  0  0  0  0  0  0  0  0  0
   10.0649  -10.0649    0.0000 N   0  0  0  0  0  0  0  0  0  0  0  0
   10.7771  -10.4733    0.0000 C   0  0  0  0  0  0  0  0  0  0  0  0
   10.7771   -8.8229    0.0000 C   0  0  0  0  0  0  0  0  0  0  0  0
   12.2071   -7.9993    0.0000 C   0  0  0  0  0  0  0  0  0  0  0  0
   12.2086   -6.3536    0.0000 C   0  0  0  0  0  0  0  0  0  0  0  0
   11.4916   -6.7665    0.0000 C   0  0  0  0  0  0  0  0  0  0  0  0
   11.4948   -7.5895    0.0000 N   0  3  0  0  0  0  0  0  0  0  0  0
   12.9238   -6.7628    0.0000 C   0  0  0  0  0  0  0  0  0  0  0  0
   12.9257   -7.5878    0.0000 C   0  0  0  0  0  0  0  0  0  0  0  0
   13.7109   -7.8409    0.0000 N   0  0  0  0  0  0  0  0  0  0  0  0
   13.7078   -6.5062    0.0000 C   0  0  0  0  0  0  0  0  0  0  0  0
   14.1919   -7.1721    0.0000 C   0  0  0  0  0  0  0  0  0  0  0  0
   15.0088   -7.0850    0.0000 C   0  0  0  0  0  0  0  0  0  0  0  0
   15.3425   -6.3325    0.0000 C   0  0  0  0  0  0  0  0  0  0  0  0
   14.8533   -5.6665    0.0000 C   0  0  0  0  0  0  0  0  0  0  0  0
   14.0382   -5.7569    0.0000 C   0  0  0  0  0  0  0  0  0  0  0  0
    9.4773  -10.6484    0.0000 C   0  0  0  0  0  0  0  0  0  0  0  0
   10.0607  -11.2319    0.0000 C   0  0  0  0  0  0  0  0  0  0  0  0
   10.8578  -11.0182    0.0000 C   0  0  0  0  0  0  0  0  0  0  0  0
   13.6277  -10.4785    0.0000 C   0  0  0  0  0  0  0  0  0  0  0  0
   13.2074  -11.1902    0.0000 C   0  0  0  0  0  0  0  0  0  0  0  0
   11.5622  -11.3934    0.0000 C   0  0  0  0  0  0  0  0  0  0  0  0
   12.6822  -10.8359    0.0000 C   0  0  0  0  0  0  0  0  0  0  0  0
   11.9279  -10.8484    0.0000 C   0  0  0  0  0  0  0  0  0  0  0  0
   12.2723  -11.4695    0.0000 N   0  0  0  0  0  0  0  0  0  0  0  0
   11.4390  -13.1391    0.0000 C   0  0  0  0  0  0  0  0  0  0  0  0
   11.1226  -12.3747    0.0000 C   0  0  0  0  0  0  0  0  0  0  0  0
   11.4375  -11.6143    0.0000 C   0  0  0  0  0  0  0  0  0  0  0  0
   12.1996  -13.4540    0.0000 C   0  0  0  0  0  0  0  0  0  0  0  0
   12.9639  -13.1374    0.0000 C   0  0  0  0  0  0  0  0  0  0  0  0
   13.2789  -12.3770    0.0000 C   0  0  0  0  0  0  0  0  0  0  0  0
   12.9622  -11.6127    0.0000 C   0  0  0  0  0  0  0  0  0  0  0  0
   11.0694  -10.7776    0.0000 C   0  0  0  0  0  0  0  0  0  0  0  0
   13.6241   -9.6481    0.0000 O   0  0  0  0  0  0  0  0  0  0  0  0
   10.6943   -7.8019    0.0000 O   0  5  0  0  0  0  0  0  0  0  0  0
   11.2694   -8.4395    0.0000 H   0  0  0  0  0  0  0  0  0  0  0  0
   12.1946   -9.6481    0.0000 H   0  0  0  0  0  0  0  0  0  0  0  0
 20 21  2  0  0  0  0
  1 10  1  0  0  0  0
 21 22  1  0  0  0  0
  3  4  1  0  0  0  0
 22 23  2  0  0  0  0
 23 18  1  0  0  0  0
 11 16  2  0  0  0  0
  8 24  1  0  0  0  0
  4  5  1  0  0  0  0
 24 25  1  0  0  0  0
 15 12  2  0  0  0  0
 25 26  1  0  0  0  0
  5  6  2  0  0  0  0
  4 27  1  0  0  0  0
 12 13  1  0  0  0  0
 27 28  1  0  0  0  0
  7  8  1  0  0  0  0
 26 29  1  0  0  0  0
 13 14  2  0  0  0  0
 28 30  1  0  0  0  0
 14 11  1  0  0  0  0
 29 31  1  0  0  0  0
 31 30  2  0  0  0  0
  6 11  1  0  0  0  0
 15 16  1  0  0  0  0
  1  2  1  0  0  0  0
  1  6  1  0  0  0  0
 16 17  1  0  0  0  0
 17 19  1  0  0  0  0
 18 15  1  0  0  0  0
 33 34  2  0  0  0  0
 34 35  1  0  0  0  0
 33 36  1  0  0  0  0
 36 37  1  0  0  0  0
 37 38  1  0  0  0  0
 38 39  1  0  0  0  0
 39 32  1  0  0  0  0
  2  3  1  0  0  0  0
  2 40  1  6  0  0  0
 35 40  1  0  0  0  0
  7 10  1  0  0  0  0
  4 41  1  6  0  0  0
 35 32  1  0  0  0  0
 18 19  2  0  0  0  0
  8  9  1  0  0  0  0
 14 42  1  0  0  0  0
 19 20  1  0  0  0  0
  1 43  1  6  0  0  0
  9  2  1  0  0  0  0
  3 44  1  1  0  0  0
  3 32  1  0  0  0  0
M  CHG  2  14   1  42  -1
M  END
>  <Mol Weight>
564.7602

>  <Formula>
C36H44N4O2

>  <chembl_id>
CHEMBL501973

$$$$

  Mrv0541 06201412482D          

 44 45  0  0  0  0            999 V2000
   -0.5984   -0.0724    0.0000 C   0  0  0  0  0  0  0  0  0  0  0  0
    0.1086   -0.5068    0.0000 C   0  0  0  0  0  0  0  0  0  0  0  0
    0.8346   -0.1121    0.0000 C   0  0  0  0  0  0  0  0  0  0  0  0
    1.5400   -0.5426    0.0000 C   0  0  0  0  0  0  0  0  0  0  0  0
    2.2660   -0.1478    0.0000 C   0  0  0  0  0  0  0  0  0  0  0  0
    2.9729   -0.5822    0.0000 C   0  0  0  0  0  0  0  0  0  0  0  0
    3.6974   -0.1836    0.0000 C   0  0  0  0  0  0  0  0  0  0  0  0
    4.4043   -0.6180    0.0000 C   0  0  0  0  0  0  0  0  0  0  0  0
    5.1288   -0.2194    0.0000 C   0  0  0  0  0  0  0  0  0  0  0  0
    5.8357   -0.6537    0.0000 C   0  0  0  0  0  0  0  0  0  0  0  0
    6.5617   -0.2590    0.0000 C   0  0  0  0  0  0  0  0  0  0  0  0
    7.3444   -0.5335    0.0000 C   0  0  0  0  0  0  0  0  0  0  0  0
    7.8388    0.1190    0.0000 C   0  0  0  0  0  0  0  0  0  0  0  0
    7.3795    0.8047    0.0000 C   0  0  0  0  0  0  0  0  0  0  0  0
    6.5836    0.5703    0.0000 O   0  0  0  0  0  0  0  0  0  0  0  0
    8.6712    0.0891    0.0000 C   0  0  0  0  0  0  0  0  0  0  0  0
    9.0579   -0.6397    0.0000 C   0  0  0  0  0  0  0  0  0  0  0  0
    9.8823   -0.6692    0.0000 C   0  0  0  0  0  0  0  0  0  0  0  0
    8.6200   -1.3389    0.0000 O   0  0  0  0  0  0  0  0  0  0  0  0
    7.6602    1.5805    0.0000 O   0  0  0  0  0  0  0  0  0  0  0  0
   -1.3410   -1.3133    0.0000 C   0  0  2  0  0  0  0  0  0  0  0  0
   -2.0214   -1.7826    0.0000 C   0  0  0  0  0  0  0  0  0  0  0  0
   -1.7876   -2.5715    0.0000 C   0  0  0  0  0  0  0  0  0  0  0  0
   -0.9688   -2.5949    0.0000 C   0  0  2  0  0  0  0  0  0  0  0  0
   -0.6887   -1.8102    0.0000 O   0  0  0  0  0  0  0  0  0  0  0  0
   -1.3251   -0.4764    0.0000 C   0  0  1  0  0  0  0  0  0  0  0  0
   -2.0266   -0.0443    0.0000 O   0  0  0  0  0  0  0  0  0  0  0  0
   -0.5119   -3.2897    0.0000 C   0  0  1  0  0  0  0  0  0  0  0  0
   -0.8837   -4.0212    0.0000 O   0  0  0  0  0  0  0  0  0  0  0  0
    0.3099   -3.2464    0.0000 C   0  0  0  0  0  0  0  0  0  0  0  0
    0.7580   -3.9361    0.0000 C   0  0  0  0  0  0  0  0  0  0  0  0
    1.5798   -3.8929    0.0000 C   0  0  0  0  0  0  0  0  0  0  0  0
    2.0278   -4.5826    0.0000 C   0  0  0  0  0  0  0  0  0  0  0  0
    2.8496   -4.5393    0.0000 C   0  0  0  0  0  0  0  0  0  0  0  0
    3.2977   -5.2290    0.0000 C   0  0  0  0  0  0  0  0  0  0  0  0
    4.1179   -5.1819    0.0000 C   0  0  0  0  0  0  0  0  0  0  0  0
    4.5660   -5.8716    0.0000 C   0  0  0  0  0  0  0  0  0  0  0  0
    5.3878   -5.8283    0.0000 C   0  0  0  0  0  0  0  0  0  0  0  0
    5.8358   -6.5180    0.0000 C   0  0  0  0  0  0  0  0  0  0  0  0
    6.6576   -6.4747    0.0000 C   0  0  0  0  0  0  0  0  0  0  0  0
    7.1057   -7.1644    0.0000 C   0  0  0  0  0  0  0  0  0  0  0  0
   -2.1417   -1.0958    0.0000 H   0  0  0  0  0  0  0  0  0  0  0  0
   -1.3875   -3.3042    0.0000 H   0  0  0  0  0  0  0  0  0  0  0  0
    2.2879    0.6783    0.0000 O   0  0  0  0  0  0  0  0  0  0  0  0
  3  4  1  0  0  0  0
  4  5  1  0  0  0  0
  5  6  1  0  0  0  0
  6  7  1  0  0  0  0
  7  8  1  0  0  0  0
  8  9  1  0  0  0  0
  9 10  1  0  0  0  0
 10 11  1  0  0  0  0
 11 12  1  0  0  0  0
 12 13  1  0  0  0  0
 13 14  1  0  0  0  0
 14 15  1  0  0  0  0
 15 11  1  0  0  0  0
 13 16  1  0  0  0  0
 16 17  1  0  0  0  0
 17 18  1  0  0  0  0
 17 19  2  0  0  0  0
 14 20  2  0  0  0  0
  1  2  1  0  0  0  0
 21 22  1  0  0  0  0
 30 31  1  0  0  0  0
 21 26  1  0  0  0  0
 31 32  1  0  0  0  0
 32 33  1  0  0  0  0
 26  1  1  0  0  0  0
 33 34  1  0  0  0  0
 22 23  1  0  0  0  0
 34 35  1  0  0  0  0
 26 27  1  1  0  0  0
 35 36  1  0  0  0  0
 23 24  1  0  0  0  0
 36 37  1  0  0  0  0
 24 28  1  0  0  0  0
 37 38  1  0  0  0  0
 24 25  1  0  0  0  0
 21 42  1  6  0  0  0
 38 39  1  0  0  0  0
 24 43  1  1  0  0  0
 28 29  1  6  0  0  0
 39 40  1  0  0  0  0
 21 25  1  0  0  0  0
 40 41  1  0  0  0  0
 28 30  1  0  0  0  0
  2  3  1  0  0  0  0
  5 44  1  0  0  0  0
M  END
>  <Mol Weight>
596.8785

>  <Formula>
C35H64O7

>  <chembl_id>
CHEMBL502181

$$$$

  Mrv0541 06201412482D          

 41 46  0  0  0  0            999 V2000
   18.2779  -23.6196    0.0000 C   0  0  0  0  0  0  0  0  0  0  0  0
   18.9539  -24.0921    0.0000 N   0  0  0  0  0  0  0  0  0  0  0  0
   19.6123  -23.5949    0.0000 N   0  0  0  0  0  0  0  0  0  0  0  0
   19.3427  -22.8148    0.0000 C   0  0  0  0  0  0  0  0  0  0  0  0
   18.5177  -22.8304    0.0000 C   0  0  0  0  0  0  0  0  0  0  0  0
   20.4021  -23.8336    0.0000 C   0  0  0  0  0  0  0  0  0  0  0  0
   20.6748  -24.6094    0.0000 N   0  0  0  0  0  0  0  0  0  0  0  0
   21.4998  -24.5925    0.0000 C   0  0  0  0  0  0  0  0  0  0  0  0
   21.7386  -23.8026    0.0000 O   0  0  0  0  0  0  0  0  0  0  0  0
   21.0612  -23.3316    0.0000 C   0  0  0  0  0  0  0  0  0  0  0  0
   21.0432  -22.5066    0.0000 C   0  0  0  0  0  0  0  0  0  0  0  0
   21.9317  -25.2954    0.0000 C   0  0  0  0  0  0  0  0  0  0  0  0
   21.5358  -26.0195    0.0000 C   0  0  0  0  0  0  0  0  0  0  0  0
   21.9674  -26.7219    0.0000 C   0  0  0  0  0  0  0  0  0  0  0  0
   22.7931  -26.6993    0.0000 C   0  0  0  0  0  0  0  0  0  0  0  0
   23.1853  -25.9686    0.0000 C   0  0  0  0  0  0  0  0  0  0  0  0
   22.7515  -25.2692    0.0000 C   0  0  0  0  0  0  0  0  0  0  0  0
   17.5514  -24.0110    0.0000 C   0  0  0  0  0  0  0  0  0  0  0  0
   19.7373  -22.0899    0.0000 N   0  0  0  0  0  0  0  0  0  0  0  0
   20.5658  -22.0742    0.0000 C   0  0  0  0  0  0  0  0  0  0  0  0
   20.9604  -21.3536    0.0000 C   0  0  0  0  0  0  0  0  0  0  0  0
   19.3086  -21.3909    0.0000 C   0  0  0  0  0  0  0  0  0  0  0  0
   19.7076  -20.6657    0.0000 C   0  0  0  0  0  0  0  0  0  0  0  0
   20.5324  -20.6502    0.0000 C   0  0  0  0  0  0  0  0  0  0  0  0
   20.9295  -19.9293    0.0000 C   0  0  0  0  0  0  0  0  0  0  0  0
   20.5031  -19.2235    0.0000 C   0  0  0  0  0  0  0  0  0  0  0  0
   19.6753  -19.2432    0.0000 C   0  0  0  0  0  0  0  0  0  0  0  0
   19.2819  -19.9644    0.0000 C   0  0  0  0  0  0  0  0  0  0  0  0
   16.8528  -23.5774    0.0000 C   0  0  0  0  0  0  0  0  0  0  0  0
   16.1270  -23.9682    0.0000 C   0  0  0  0  0  0  0  0  0  0  0  0
   16.1023  -24.7938    0.0000 C   0  0  0  0  0  0  0  0  0  0  0  0
   16.8095  -25.2271    0.0000 C   0  0  0  0  0  0  0  0  0  0  0  0
   17.5325  -24.8340    0.0000 C   0  0  0  0  0  0  0  0  0  0  0  0
   19.2457  -18.5386    0.0000 O   0  0  0  0  0  0  0  0  0  0  0  0
   19.6410  -17.8144    0.0000 C   0  0  0  0  0  0  0  0  0  0  0  0
   16.8782  -22.7527    0.0000 Cl  0  0  0  0  0  0  0  0  0  0  0  0
   15.3764  -25.1862    0.0000 Cl  0  0  0  0  0  0  0  0  0  0  0  0
   23.1410  -24.5419    0.0000 C   0  0  0  0  0  0  0  0  0  0  0  0
   23.3511  -23.7408    0.0000 F   0  0  0  0  0  0  0  0  0  0  0  0
   23.9092  -24.8433    0.0000 F   0  0  0  0  0  0  0  0  0  0  0  0
   22.3716  -24.2441    0.0000 F   0  0  0  0  0  0  0  0  0  0  0  0
 19 20  1  0  0  0  0
  8  9  1  0  0  0  0
  9 10  1  0  0  0  0
 10  6  2  0  0  0  0
 19 22  1  0  0  0  0
 20 21  1  0  0  0  0
 21 24  1  0  0  0  0
 23 22  1  0  0  0  0
  5  1  1  0  0  0  0
 10 11  1  0  0  0  0
 23 24  2  0  0  0  0
  1  2  2  0  0  0  0
 24 25  1  0  0  0  0
  8 12  1  0  0  0  0
 25 26  2  0  0  0  0
  3  6  1  0  0  0  0
 26 27  1  0  0  0  0
 12 13  2  0  0  0  0
 27 28  2  0  0  0  0
 28 23  1  0  0  0  0
  6  7  1  0  0  0  0
 18 29  2  0  0  0  0
 13 14  1  0  0  0  0
 29 30  1  0  0  0  0
 30 31  2  0  0  0  0
 14 15  2  0  0  0  0
 31 32  1  0  0  0  0
  2  3  1  0  0  0  0
 32 33  2  0  0  0  0
 33 18  1  0  0  0  0
 15 16  1  0  0  0  0
 27 34  1  0  0  0  0
  3  4  1  0  0  0  0
 34 35  1  0  0  0  0
 16 17  2  0  0  0  0
 29 36  1  0  0  0  0
 17 12  1  0  0  0  0
 31 37  1  0  0  0  0
  4  5  1  0  0  0  0
 17 38  1  0  0  0  0
  1 18  1  0  0  0  0
 38 39  1  0  0  0  0
  7  8  2  0  0  0  0
 38 40  1  0  0  0  0
  4 19  1  0  0  0  0
 38 41  1  0  0  0  0
M  END
>  <Mol Weight>
601.446

>  <Formula>
C30H25Cl2F3N4O2

>  <chembl_id>
CHEMBL502192

$$$$

  Mrv0541 06201412482D          

 44 50  0  0  0  0            999 V2000
    6.2035   -2.6147    0.0000 C   0  0  0  0  0  0  0  0  0  0  0  0
    6.9150   -2.1962    0.0000 C   0  0  1  0  0  0  0  0  0  0  0  0
    7.6294   -2.6147    0.0000 C   0  0  1  0  0  0  0  0  0  0  0  0
    7.6281   -3.4397    0.0000 C   0  0  1  0  0  0  0  0  0  0  0  0
    8.3366   -3.8511    0.0000 C   0  0  0  0  0  0  0  0  0  0  0  0
    9.0540   -3.4453    0.0000 C   0  0  2  0  0  0  0  0  0  0  0  0
    8.3438   -2.2012    0.0000 C   0  0  2  0  0  0  0  0  0  0  0  0
    9.0576   -2.6218    0.0000 C   0  0  2  0  0  0  0  0  0  0  0  0
    9.0712   -0.9610    0.0000 C   0  0  1  0  0  0  0  0  0  0  0  0
    8.3453   -1.3722    0.0000 C   0  0  0  0  0  0  0  0  0  0  0  0
    9.7897   -1.3862    0.0000 C   0  0  2  0  0  0  0  0  0  0  0  0
   11.0578   -1.8208    0.0000 C   0  0  0  0  0  0  0  0  0  0  0  0
   10.5803   -1.1421    0.0000 C   0  0  1  0  0  0  0  0  0  0  0  0
    5.4921   -3.8507    0.0000 O   0  0  0  0  0  0  0  0  0  0  0  0
    4.7806   -3.4397    0.0000 C   0  0  0  0  0  0  0  0  0  0  0  0
    4.0646   -3.8507    0.0000 C   0  0  0  0  0  0  0  0  0  0  0  0
    4.7806   -2.6178    0.0000 O   0  0  0  0  0  0  0  0  0  0  0  0
    6.9150   -3.8507    0.0000 C   0  0  2  0  0  0  0  0  0  0  0  0
    6.2035   -3.4397    0.0000 C   0  0  1  0  0  0  0  0  0  0  0  0
    6.5186   -4.3985    0.0000 C   0  0  1  0  0  0  0  0  0  0  0  0
    7.1213   -4.6421    0.0000 C   0  0  0  0  0  0  0  0  0  0  0  0
    6.8534   -2.6832    0.0000 C   0  0  0  0  0  0  0  0  0  0  0  0
    6.7164   -3.1626    0.0000 O   0  0  0  0  0  0  0  0  0  0  0  0
    7.6205   -4.2585    0.0000 H   0  0  0  0  0  0  0  0  0  0  0  0
    8.3405   -3.0181    0.0000 H   0  0  0  0  0  0  0  0  0  0  0  0
    7.6392   -0.9565    0.0000 O   0  0  0  0  0  0  0  0  0  0  0  0
    9.0806   -0.1392    0.0000 O   0  0  0  0  0  0  0  0  0  0  0  0
    8.3717    0.2747    0.0000 C   0  0  0  0  0  0  0  0  0  0  0  0
    8.3812    1.0965    0.0000 O   0  0  0  0  0  0  0  0  0  0  0  0
    7.6579   -0.1241    0.0000 C   0  0  0  0  0  0  0  0  0  0  0  0
    9.7818   -0.5630    0.0000 C   0  0  0  0  0  0  0  0  0  0  0  0
   10.8478   -0.3697    0.0000 C   0  0  0  0  0  0  0  0  0  0  0  0
   11.6324   -0.1241    0.0000 C   0  0  0  0  0  0  0  0  0  0  0  0
   11.6469    0.6976    0.0000 O   0  0  0  0  0  0  0  0  0  0  0  0
   10.8674    0.9607    0.0000 C   0  0  0  0  0  0  0  0  0  0  0  0
   10.3722    0.3047    0.0000 C   0  0  0  0  0  0  0  0  0  0  0  0
   10.5602   -2.4810    0.0000 C   0  0  2  0  0  0  0  0  0  0  0  0
    9.7773   -2.2153    0.0000 C   0  0  2  0  0  0  0  0  0  0  0  0
    9.9351   -3.0273    0.0000 O   0  0  0  0  0  0  0  0  0  0  0  0
    9.0579   -1.7067    0.0000 C   0  0  0  0  0  0  0  0  0  0  0  0
   11.1407   -3.0660    0.0000 H   0  0  0  0  0  0  0  0  0  0  0  0
    6.9130   -1.3743    0.0000 O   0  0  0  0  0  0  0  0  0  0  0  0
    6.2228   -5.1673    0.0000 O   0  0  0  0  0  0  0  0  0  0  0  0
    9.7655   -3.8593    0.0000 O   0  0  0  0  0  0  0  0  0  0  0  0
 18  4  1  0  0  0  0
  3  2  1  0  0  0  0
  3  4  1  0  0  0  0
  3  7  1  0  0  0  0
  4  5  1  0  0  0  0
  5  6  1  0  0  0  0
  6  8  1  0  0  0  0
  7  8  1  0  0  0  0
  7 10  1  0  0  0  0
  8 38  1  0  0  0  0
 11  9  1  0  0  0  0
  9 10  1  0  0  0  0
 11 38  1  0  0  0  0
 37 12  1  0  0  0  0
 12 13  1  0  0  0  0
 13 11  1  0  0  0  0
 19 14  1  6  0  0  0
 14 15  1  0  0  0  0
 15 16  1  0  0  0  0
 15 17  2  0  0  0  0
 19 18  1  0  0  0  0
 18 20  1  0  0  0  0
 18 21  1  6  0  0  0
  3 22  1  1  0  0  0
 22 23  1  0  0  0  0
 20 23  1  0  0  0  0
  4 24  1  6  0  0  0
  7 25  1  6  0  0  0
 10 26  2  0  0  0  0
  9 27  1  6  0  0  0
 27 28  1  0  0  0  0
 28 29  2  0  0  0  0
 28 30  1  0  0  0  0
 11 31  1  6  0  0  0
 32 33  2  0  0  0  0
 33 34  1  0  0  0  0
 34 35  1  0  0  0  0
 35 36  2  0  0  0  0
 36 32  1  0  0  0  0
 13 32  1  6  0  0  0
 38 37  1  0  0  0  0
 38 39  1  1  0  0  0
 37 39  1  0  0  0  0
  8 40  1  1  0  0  0
 37 41  1  6  0  0  0
  1 19  1  0  0  0  0
  1  2  1  0  0  0  0
 20 43  1  6  0  0  0
  2 42  1  6  0  0  0
  6 44  1  6  0  0  0
M  END
>  <Mol Weight>
574.6161

>  <Formula>
C30H38O11

>  <chembl_id>
CHEMBL503044

$$$$

  Mrv0541 06201412482D          

 42 45  0  0  0  0            999 V2000
   -3.0829  -14.3784    0.0000 C   0  0  0  0  0  0  0  0  0  0  0  0
   -2.3682  -13.9642    0.0000 S   0  0  0  0  0  0  0  0  0  0  0  0
   -1.6575  -13.5456    0.0000 N   0  0  0  0  0  0  0  0  0  0  0  0
   -1.9499  -14.6765    0.0000 O   0  0  0  0  0  0  0  0  0  0  0  0
   -2.7830  -13.2521    0.0000 O   0  0  0  0  0  0  0  0  0  0  0  0
   -0.9383  -13.9479    0.0000 C   0  0  0  0  0  0  0  0  0  0  0  0
   -0.2282  -13.5298    0.0000 C   0  0  0  0  0  0  0  0  0  0  0  0
    0.4910  -13.9321    0.0000 N   0  0  0  0  0  0  0  0  0  0  0  0
    1.1969  -13.5140    0.0000 C   0  0  0  0  0  0  0  0  0  0  0  0
    1.9161  -13.9163    0.0000 C   0  0  0  0  0  0  0  0  0  0  0  0
   -3.7971  -13.9612    0.0000 C   0  0  0  0  0  0  0  0  0  0  0  0
   -4.5112  -14.3749    0.0000 C   0  0  0  0  0  0  0  0  0  0  0  0
   -4.5117  -15.2003    0.0000 C   0  0  0  0  0  0  0  0  0  0  0  0
   -3.7920  -15.6104    0.0000 C   0  0  0  0  0  0  0  0  0  0  0  0
   -3.0808  -15.1985    0.0000 C   0  0  0  0  0  0  0  0  0  0  0  0
   -1.6665  -12.7211    0.0000 C   0  0  0  0  0  0  0  0  0  0  0  0
   -0.9565  -12.2988    0.0000 C   0  0  0  0  0  0  0  0  0  0  0  0
   -0.2385  -12.7085    0.0000 C   0  0  0  0  0  0  0  0  0  0  0  0
    0.4711  -12.2870    0.0000 C   0  0  0  0  0  0  0  0  0  0  0  0
    0.4624  -11.4615    0.0000 C   0  0  0  0  0  0  0  0  0  0  0  0
   -0.2617  -11.0595    0.0000 C   0  0  0  0  0  0  0  0  0  0  0  0
   -0.9684  -11.4793    0.0000 C   0  0  0  0  0  0  0  0  0  0  0  0
    2.6261  -13.4981    0.0000 C   0  0  0  0  0  0  0  0  0  0  0  0
    3.3453  -13.9005    0.0000 N   0  0  0  0  0  0  0  0  0  0  0  0
    4.0554  -13.4823    0.0000 S   0  0  0  0  0  0  0  0  0  0  0  0
    4.7652  -13.0608    0.0000 C   0  0  0  0  0  0  0  0  0  0  0  0
    3.6333  -12.7722    0.0000 O   0  0  0  0  0  0  0  0  0  0  0  0
    4.4738  -14.1923    0.0000 O   0  0  0  0  0  0  0  0  0  0  0  0
    5.4832  -13.4703    0.0000 C   0  0  0  0  0  0  0  0  0  0  0  0
    6.1926  -13.0494    0.0000 C   0  0  0  0  0  0  0  0  0  0  0  0
    6.1844  -12.2245    0.0000 C   0  0  0  0  0  0  0  0  0  0  0  0
    5.4609  -11.8223    0.0000 C   0  0  0  0  0  0  0  0  0  0  0  0
    4.7545  -12.2414    0.0000 C   0  0  0  0  0  0  0  0  0  0  0  0
    3.3545  -14.7250    0.0000 C   0  0  0  0  0  0  0  0  0  0  0  0
    2.6444  -15.1473    0.0000 C   0  0  0  0  0  0  0  0  0  0  0  0
    1.9279  -14.7384    0.0000 C   0  0  0  0  0  0  0  0  0  0  0  0
    1.2183  -15.1598    0.0000 C   0  0  0  0  0  0  0  0  0  0  0  0
    1.2270  -15.9853    0.0000 C   0  0  0  0  0  0  0  0  0  0  0  0
    1.9512  -16.3874    0.0000 C   0  0  0  0  0  0  0  0  0  0  0  0
    2.6578  -15.9676    0.0000 C   0  0  0  0  0  0  0  0  0  0  0  0
    6.8894  -11.8050    0.0000 N   0  0  0  0  0  0  0  0  0  0  0  0
   -5.2212  -15.6124    0.0000 N   0  0  0  0  0  0  0  0  0  0  0  0
 20 21  1  0  0  0  0
  1 11  2  0  0  0  0
 21 22  2  0  0  0  0
 22 17  1  0  0  0  0
  3  6  1  0  0  0  0
 10 23  1  0  0  0  0
 11 12  1  0  0  0  0
 23 24  1  0  0  0  0
  1  2  1  0  0  0  0
 24 25  1  0  0  0  0
 12 13  2  0  0  0  0
 25 26  1  0  0  0  0
  6  7  1  0  0  0  0
 25 27  2  0  0  0  0
 13 14  1  0  0  0  0
 25 28  2  0  0  0  0
  2  4  2  0  0  0  0
 26 29  2  0  0  0  0
 14 15  2  0  0  0  0
 29 30  1  0  0  0  0
 15  1  1  0  0  0  0
 30 31  2  0  0  0  0
  7  8  1  0  0  0  0
 31 32  1  0  0  0  0
  3 16  1  0  0  0  0
 32 33  2  0  0  0  0
 33 26  1  0  0  0  0
 24 34  1  0  0  0  0
 16 17  1  0  0  0  0
 34 35  1  0  0  0  0
  8  9  1  0  0  0  0
 35 36  2  0  0  0  0
 17 18  2  0  0  0  0
 36 37  1  0  0  0  0
  2  5  2  0  0  0  0
 37 38  2  0  0  0  0
 18 19  1  0  0  0  0
 38 39  1  0  0  0  0
  9 10  1  0  0  0  0
 39 40  2  0  0  0  0
 40 35  1  0  0  0  0
 19 20  2  0  0  0  0
 31 41  1  0  0  0  0
  2  3  1  0  0  0  0
 13 42  1  0  0  0  0
M  END
>  <Mol Weight>
607.787

>  <Formula>
C31H37N5O4S2

>  <chembl_id>
CHEMBL505405

$$$$

  Mrv0541 06201412482D          

 44 48  0  0  0  0            999 V2000
    8.0649   -3.9387    0.0000 N   0  3  0  0  0  0  0  0  0  0  0  0
    3.1926   -4.6556    0.0000 C   0  0  0  0  0  0  0  0  0  0  0  0
    5.3349   -4.2304    0.0000 C   0  0  0  0  0  0  0  0  0  0  0  0
    3.9053   -4.2387    0.0000 N   0  0  0  0  0  0  0  0  0  0  0  0
    4.6222   -4.6472    0.0000 C   0  0  1  0  0  0  0  0  0  0  0  0
    6.0518   -4.6389    0.0000 N   0  0  0  0  0  0  0  0  0  0  0  0
   -0.3793   -5.9059    0.0000 C   0  0  0  0  0  0  0  0  0  0  0  0
   10.4823   -4.4721    0.0000 C   0  0  0  0  0  0  0  0  0  0  0  0
    2.4757   -4.2429    0.0000 N   0  0  0  0  0  0  0  0  0  0  0  0
   11.0365   -3.8636    0.0000 C   0  0  0  0  0  0  0  0  0  0  0  0
   10.8865   -5.1848    0.0000 O   0  0  0  0  0  0  0  0  0  0  0  0
    0.3334   -5.4933    0.0000 C   0  0  0  0  0  0  0  0  0  0  0  0
   11.7827   -4.2054    0.0000 O   0  0  0  0  0  0  0  0  0  0  0  0
   11.6909   -5.0223    0.0000 C   0  0  0  0  0  0  0  0  0  0  0  0
    8.6233   -3.3302    0.0000 C   0  0  0  0  0  0  0  0  0  0  0  0
    3.1967   -5.4808    0.0000 O   0  0  0  0  0  0  0  0  0  0  0  0
    6.7645   -4.2220    0.0000 C   0  0  2  0  0  0  0  0  0  0  0  0
    9.6736   -4.2930    0.0000 C   0  0  0  0  0  0  0  0  0  0  0  0
    7.5147   -4.5555    0.0000 C   0  0  0  0  0  0  0  0  0  0  0  0
    5.3308   -3.4052    0.0000 O   0  0  0  0  0  0  0  0  0  0  0  0
    4.6264   -5.4724    0.0000 C   0  0  0  0  0  0  0  0  0  0  0  0
    9.4278   -3.5093    0.0000 C   0  0  0  0  0  0  0  0  0  0  0  0
    7.6481   -3.2259    0.0000 C   0  0  0  0  0  0  0  0  0  0  0  0
   -0.3834   -6.7312    0.0000 O   0  0  0  0  0  0  0  0  0  0  0  0
    6.8437   -3.4010    0.0000 C   0  0  0  0  0  0  0  0  0  0  0  0
   10.7865   -3.0759    0.0000 C   0  0  0  0  0  0  0  0  0  0  0  0
    1.0461   -5.9059    0.0000 C   0  0  0  0  0  0  0  0  0  0  0  0
    0.3376   -4.6639    0.0000 C   0  0  0  0  0  0  0  0  0  0  0  0
    1.7630   -4.6597    0.0000 C   0  0  0  0  0  0  0  0  0  0  0  0
    5.3433   -5.8809    0.0000 C   0  0  0  0  0  0  0  0  0  0  0  0
    9.9821   -2.9009    0.0000 C   0  0  0  0  0  0  0  0  0  0  0  0
   -1.0961   -5.4891    0.0000 O   0  0  0  0  0  0  0  0  0  0  0  0
    8.4692   -4.6472    0.0000 C   0  0  0  0  0  0  0  0  0  0  0  0
    6.7728   -6.6978    0.0000 C   0  0  0  0  0  0  0  0  0  0  0  0
    1.7672   -5.4933    0.0000 C   0  0  0  0  0  0  0  0  0  0  0  0
    1.0461   -4.2513    0.0000 C   0  0  0  0  0  0  0  0  0  0  0  0
    6.0518   -5.4641    0.0000 C   0  0  0  0  0  0  0  0  0  0  0  0
    5.3433   -6.7062    0.0000 C   0  0  0  0  0  0  0  0  0  0  0  0
    6.0601   -7.1146    0.0000 C   0  0  0  0  0  0  0  0  0  0  0  0
    6.7687   -5.8684    0.0000 C   0  0  0  0  0  0  0  0  0  0  0  0
    7.4897   -7.1063    0.0000 O   0  0  0  0  0  0  0  0  0  0  0  0
   -1.8088   -5.9017    0.0000 C   0  0  0  0  0  0  0  0  0  0  0  0
    7.4980   -7.9315    0.0000 C   0  0  0  0  0  0  0  0  0  0  0  0
   -2.5215   -5.4891    0.0000 C   0  0  0  0  0  0  0  0  0  0  0  0
  2  4  1  0  0  0  0
  3  6  1  0  0  0  0
  4  5  1  0  0  0  0
  5  3  1  0  0  0  0
 17  6  1  1  0  0  0
  7 12  1  0  0  0  0
  8 18  1  0  0  0  0
  9  2  1  0  0  0  0
 10 26  1  0  0  0  0
 11  8  1  0  0  0  0
 12 27  1  0  0  0  0
 13 10  1  0  0  0  0
 14 11  1  0  0  0  0
 15  1  1  0  0  0  0
 16  2  2  0  0  0  0
 17 19  1  0  0  0  0
 18 22  2  0  0  0  0
 19  1  1  0  0  0  0
 20  3  2  0  0  0  0
  5 21  1  6  0  0  0
 22 15  1  0  0  0  0
 23  1  1  0  0  0  0
 24  7  2  0  0  0  0
 25 23  1  0  0  0  0
 26 31  2  0  0  0  0
 27 35  2  0  0  0  0
 28 36  1  0  0  0  0
 29  9  1  0  0  0  0
 30 21  1  0  0  0  0
 31 22  1  0  0  0  0
 32  7  1  0  0  0  0
 33  1  1  0  0  0  0
 34 40  1  0  0  0  0
 35 29  1  0  0  0  0
 36 29  2  0  0  0  0
 37 30  1  0  0  0  0
 38 30  2  0  0  0  0
 39 38  1  0  0  0  0
 40 37  2  0  0  0  0
 41 34  1  0  0  0  0
 42 32  1  0  0  0  0
 43 41  1  0  0  0  0
 44 42  1  0  0  0  0
 17 25  1  0  0  0  0
  8 10  2  0  0  0  0
 13 14  1  0  0  0  0
 34 39  2  0  0  0  0
 12 28  2  0  0  0  0
M  CHG  1   1   1
M  END
>  <Mol Weight>
603.6848

>  <Formula>
C33H39N4O7

>  <chembl_id>
CHEMBL499565

$$$$

  Mrv0541 06201412482D          

 41 46  0  0  0  0            999 V2000
   -4.7452  -25.2354    0.0000 C   0  0  0  0  0  0  0  0  0  0  0  0
   -4.7465  -26.0630    0.0000 C   0  0  0  0  0  0  0  0  0  0  0  0
   -4.0335  -26.4759    0.0000 C   0  0  0  0  0  0  0  0  0  0  0  0
   -4.0355  -24.8227    0.0000 C   0  0  0  0  0  0  0  0  0  0  0  0
   -3.3174  -25.2314    0.0000 C   0  0  0  0  0  0  0  0  0  0  0  0
   -3.3163  -26.0588    0.0000 C   0  0  0  0  0  0  0  0  0  0  0  0
   -2.6005  -26.4698    0.0000 N   0  0  0  0  0  0  0  0  0  0  0  0
   -1.8850  -26.0545    0.0000 C   0  0  0  0  0  0  0  0  0  0  0  0
   -1.8901  -25.2239    0.0000 C   0  0  0  0  0  0  0  0  0  0  0  0
   -2.6066  -24.8167    0.0000 C   0  0  0  0  0  0  0  0  0  0  0  0
   -5.4615  -26.4745    0.0000 Cl  0  0  0  0  0  0  0  0  0  0  0  0
   -2.6113  -23.9917    0.0000 N   0  0  0  0  0  0  0  0  0  0  0  0
   -1.8991  -23.5753    0.0000 C   0  0  0  0  0  0  0  0  0  0  0  0
   -1.1824  -23.9837    0.0000 C   0  0  0  0  0  0  0  0  0  0  0  0
   -0.4702  -23.5671    0.0000 N   0  0  0  0  0  0  0  0  0  0  0  0
    0.2494  -23.9816    0.0000 C   0  0  0  0  0  0  0  0  0  0  0  0
    0.9594  -23.5687    0.0000 C   0  0  0  0  0  0  0  0  0  0  0  0
    0.9590  -22.7433    0.0000 N   0  0  0  0  0  0  0  0  0  0  0  0
    0.2423  -22.3326    0.0000 C   0  0  0  0  0  0  0  0  0  0  0  0
   -0.4739  -22.7473    0.0000 C   0  0  0  0  0  0  0  0  0  0  0  0
    1.6686  -22.3286    0.0000 C   0  0  0  0  0  0  0  0  0  0  0  0
    2.3841  -22.7414    0.0000 N   0  0  0  0  0  0  0  0  0  0  0  0
    3.0973  -22.3283    0.0000 C   0  0  0  0  0  0  0  0  0  0  0  0
    3.0962  -21.5025    0.0000 N   0  0  0  0  0  0  0  0  0  0  0  0
    2.3760  -21.0914    0.0000 C   0  0  0  0  0  0  0  0  0  0  0  0
    1.6657  -21.5070    0.0000 N   0  0  0  0  0  0  0  0  0  0  0  0
    2.3715  -20.2664    0.0000 N   0  0  0  0  0  0  0  0  0  0  0  0
    3.0837  -19.8501    0.0000 C   0  0  0  0  0  0  0  0  0  0  0  0
    3.8040  -20.2631    0.0000 C   0  0  0  0  0  0  0  0  0  0  0  0
    4.5157  -19.8474    0.0000 C   0  0  0  0  0  0  0  0  0  0  0  0
    4.5117  -19.0216    0.0000 C   0  0  0  0  0  0  0  0  0  0  0  0
    3.7900  -18.6132    0.0000 C   0  0  0  0  0  0  0  0  0  0  0  0
    3.0812  -19.0311    0.0000 C   0  0  0  0  0  0  0  0  0  0  0  0
    3.8087  -22.7422    0.0000 N   0  0  0  0  0  0  0  0  0  0  0  0
    3.8078  -23.5681    0.0000 C   0  0  0  0  0  0  0  0  0  0  0  0
    4.5187  -23.9795    0.0000 C   0  0  0  0  0  0  0  0  0  0  0  0
    5.2352  -23.5696    0.0000 N   0  0  0  0  0  0  0  0  0  0  0  0
    5.2359  -22.7436    0.0000 C   0  0  0  0  0  0  0  0  0  0  0  0
    4.5205  -22.3276    0.0000 C   0  0  0  0  0  0  0  0  0  0  0  0
    5.9486  -23.9837    0.0000 C   0  0  0  0  0  0  0  0  0  0  0  0
    5.9466  -24.8087    0.0000 C   0  0  0  0  0  0  0  0  0  0  0  0
 18 19  1  0  0  0  0
 19 20  1  0  0  0  0
  9 10  2  0  0  0  0
 10  5  1  0  0  0  0
 21 22  2  0  0  0  0
 22 23  1  0  0  0  0
  2 11  1  0  0  0  0
 23 24  2  0  0  0  0
  2  3  1  0  0  0  0
 24 25  1  0  0  0  0
 10 12  1  0  0  0  0
 25 26  2  0  0  0  0
 26 21  1  0  0  0  0
 18 21  1  0  0  0  0
  5  6  1  0  0  0  0
 25 27  1  0  0  0  0
 12 13  1  0  0  0  0
 27 28  1  0  0  0  0
  3  6  2  0  0  0  0
 28 29  2  0  0  0  0
 13 14  1  0  0  0  0
 29 30  1  0  0  0  0
  6  7  1  0  0  0  0
 30 31  2  0  0  0  0
 14 15  1  0  0  0  0
 31 32  1  0  0  0  0
 15 16  1  0  0  0  0
 32 33  2  0  0  0  0
 33 28  1  0  0  0  0
 34 35  1  0  0  0  0
  1  2  2  0  0  0  0
  7  8  2  0  0  0  0
  5  4  2  0  0  0  0
  8  9  1  0  0  0  0
  4  1  1  0  0  0  0
 15 20  1  0  0  0  0
 34 39  1  0  0  0  0
 35 36  1  0  0  0  0
 36 37  1  0  0  0  0
 37 38  1  0  0  0  0
 38 39  1  0  0  0  0
 23 34  1  0  0  0  0
 16 17  1  0  0  0  0
 37 40  1  0  0  0  0
 17 18  1  0  0  0  0
 40 41  1  0  0  0  0
M  END
>  <Mol Weight>
573.135

>  <Formula>
C30H37ClN10

>  <chembl_id>
CHEMBL503452

$$$$

  Mrv0541 06201412482D          

 42 47  0  0  0  0            999 V2000
   -2.0629   -2.0087    0.0000 C   0  0  0  0  0  0  0  0  0  0  0  0
   -2.3985   -2.7624    0.0000 C   0  0  0  0  0  0  0  0  0  0  0  0
   -3.2190   -2.8486    0.0000 C   0  0  0  0  0  0  0  0  0  0  0  0
   -3.7039   -2.1812    0.0000 C   0  0  0  0  0  0  0  0  0  0  0  0
   -3.3683   -1.4275    0.0000 C   0  0  0  0  0  0  0  0  0  0  0  0
   -2.5478   -1.3413    0.0000 C   0  0  0  0  0  0  0  0  0  0  0  0
   -2.2123   -0.5876    0.0000 N   0  0  0  0  0  0  0  0  0  0  0  0
   -2.6972    0.0798    0.0000 C   0  0  0  0  0  0  0  0  0  0  0  0
   -3.5177   -0.0064    0.0000 C   0  0  0  0  0  0  0  0  0  0  0  0
   -4.0026    0.6610    0.0000 C   0  0  0  0  0  0  0  0  0  0  0  0
   -3.6671    1.4147    0.0000 C   0  0  0  0  0  0  0  0  0  0  0  0
   -2.8466    1.5009    0.0000 C   0  0  0  0  0  0  0  0  0  0  0  0
   -2.3617    0.8335    0.0000 C   0  0  0  0  0  0  0  0  0  0  0  0
   -1.3918   -0.5014    0.0000 C   0  0  0  0  0  0  0  0  0  0  0  0
   -0.9069   -1.1688    0.0000 O   0  0  0  0  0  0  0  0  0  0  0  0
   -1.0563    0.2523    0.0000 C   0  0  0  0  0  0  0  0  0  0  0  0
   -0.2493    0.4238    0.0000 N   0  0  0  0  0  0  0  0  0  0  0  0
   -1.4688    0.9668    0.0000 C   0  0  0  0  0  0  0  0  0  0  0  0
   -2.2224    1.3023    0.0000 Cl  0  0  0  0  0  0  0  0  0  0  0  0
   -0.9167    1.5799    0.0000 C   0  0  0  0  0  0  0  0  0  0  0  0
   -1.0882    2.3868    0.0000 C   0  0  0  0  0  0  0  0  0  0  0  0
   -0.1630    1.2443    0.0000 N   0  0  0  0  0  0  0  0  0  0  0  0
    0.5514    1.6568    0.0000 C   0  0  0  0  0  0  0  0  0  0  0  0
    0.5514    2.4818    0.0000 C   0  0  0  0  0  0  0  0  0  0  0  0
    1.2659    2.8943    0.0000 C   0  0  0  0  0  0  0  0  0  0  0  0
    1.9804    2.4818    0.0000 C   0  0  0  0  0  0  0  0  0  0  0  0
    1.9804    1.6568    0.0000 C   0  0  0  0  0  0  0  0  0  0  0  0
    1.2659    1.2443    0.0000 C   0  0  0  0  0  0  0  0  0  0  0  0
    1.2659    0.4193    0.0000 C   0  0  0  0  0  0  0  0  0  0  0  0
    0.5514    0.0068    0.0000 O   0  0  0  0  0  0  0  0  0  0  0  0
    1.9804    0.0068    0.0000 N   0  0  0  0  0  0  0  0  0  0  0  0
    2.6948    0.4193    0.0000 C   0  0  0  0  0  0  0  0  0  0  0  0
    3.4093    0.0068    0.0000 C   0  0  0  0  0  0  0  0  0  0  0  0
    4.1238    0.4193    0.0000 C   0  0  0  0  0  0  0  0  0  0  0  0
    4.8383    0.0068    0.0000 C   0  0  0  0  0  0  0  0  0  0  0  0
    4.8383   -0.8182    0.0000 C   0  0  0  0  0  0  0  0  0  0  0  0
    4.1238   -1.2307    0.0000 C   0  0  0  0  0  0  0  0  0  0  0  0
    3.4093   -0.8182    0.0000 C   0  0  0  0  0  0  0  0  0  0  0  0
    2.6948   -1.2307    0.0000 C   0  0  0  0  0  0  0  0  0  0  0  0
    1.9804   -0.8182    0.0000 C   0  0  1  0  0  0  0  0  0  0  0  0
    1.2659   -1.2307    0.0000 C   0  0  0  0  0  0  0  0  0  0  0  0
    1.2659   -2.0557    0.0000 N   0  0  0  0  0  0  0  0  0  0  0  0
  1  2  2  0  0  0  0
  6  1  1  0  0  0  0
  2  3  1  0  0  0  0
  3  4  2  0  0  0  0
  4  5  1  0  0  0  0
  6  5  2  0  0  0  0
  6  7  1  0  0  0  0
  8  7  1  0  0  0  0
 14  7  1  0  0  0  0
  8  9  1  0  0  0  0
  8 13  2  0  0  0  0
  9 10  2  0  0  0  0
 10 11  1  0  0  0  0
 11 12  2  0  0  0  0
 12 13  1  0  0  0  0
 14 15  2  0  0  0  0
 16 14  1  0  0  0  0
 16 17  2  0  0  0  0
 16 18  1  0  0  0  0
 22 17  1  0  0  0  0
 18 19  1  0  0  0  0
 18 20  2  0  0  0  0
 20 21  1  0  0  0  0
 20 22  1  0  0  0  0
 23 22  1  0  0  0  0
 24 23  1  0  0  0  0
 28 23  2  0  0  0  0
 24 25  2  0  0  0  0
 25 26  1  0  0  0  0
 26 27  2  0  0  0  0
 28 27  1  0  0  0  0
 28 29  1  0  0  0  0
 29 30  2  0  0  0  0
 29 31  1  0  0  0  0
 32 31  1  0  0  0  0
 40 31  1  0  0  0  0
 32 33  1  0  0  0  0
 33 34  1  0  0  0  0
 33 38  2  0  0  0  0
 35 34  2  0  0  0  0
 36 35  1  0  0  0  0
 37 36  2  0  0  0  0
 38 37  1  0  0  0  0
 39 38  1  0  0  0  0
 40 39  1  0  0  0  0
 40 41  1  1  0  0  0
 41 42  1  0  0  0  0
M  END
>  <Mol Weight>
576.087

>  <Formula>
C34H30ClN5O2

>  <chembl_id>
CHEMBL503454

$$$$

  Mrv0541 06201412482D          

 42 47  0  0  0  0            999 V2000
    6.5706  -11.8763    0.0000 C   0  0  0  0  0  0  0  0  0  0  0  0
    6.5695  -12.7044    0.0000 C   0  0  0  0  0  0  0  0  0  0  0  0
    7.2849  -13.1177    0.0000 C   0  0  0  0  0  0  0  0  0  0  0  0
    7.2831  -11.4633    0.0000 C   0  0  0  0  0  0  0  0  0  0  0  0
    7.9991  -11.8727    0.0000 C   0  0  0  0  0  0  0  0  0  0  0  0
    7.9998  -12.7002    0.0000 C   0  0  0  0  0  0  0  0  0  0  0  0
    8.7157  -13.1116    0.0000 C   0  0  0  0  0  0  0  0  0  0  0  0
    8.7100  -11.4582    0.0000 C   0  0  0  0  0  0  0  0  0  0  0  0
    9.4265  -11.8658    0.0000 C   0  0  0  0  0  0  0  0  0  0  0  0
    9.4283  -12.6935    0.0000 C   0  0  0  0  0  0  0  0  0  0  0  0
   10.1420  -13.1036    0.0000 N   0  0  0  0  0  0  0  0  0  0  0  0
   10.1385  -11.4481    0.0000 C   0  0  0  0  0  0  0  0  0  0  0  0
   10.1356  -10.6224    0.0000 O   0  0  0  0  0  0  0  0  0  0  0  0
   10.1426  -13.9292    0.0000 C   0  0  0  0  0  0  0  0  0  0  0  0
   10.8568  -11.8627    0.0000 C   0  0  0  0  0  0  0  0  0  0  0  0
   10.8563  -12.6877    0.0000 C   0  0  0  0  0  0  0  0  0  0  0  0
   12.2800  -11.8579    0.0000 C   0  0  0  0  0  0  0  0  0  0  0  0
   11.5663  -11.4506    0.0000 C   0  0  0  0  0  0  0  0  0  0  0  0
   11.5632  -10.6249    0.0000 O   0  0  0  0  0  0  0  0  0  0  0  0
   12.2767  -10.2094    0.0000 C   0  0  0  0  0  0  0  0  0  0  0  0
   12.2835  -12.6861    0.0000 C   0  0  0  0  0  0  0  0  0  0  0  0
   11.5691  -13.0970    0.0000 C   0  0  0  0  0  0  0  0  0  0  0  0
   11.5678  -13.9165    0.0000 C   0  0  2  0  0  0  0  0  0  0  0  0
   12.2792  -14.3315    0.0000 C   0  0  2  0  0  0  0  0  0  0  0  0
   12.9936  -13.9205    0.0000 C   0  0  0  0  0  0  0  0  0  0  0  0
   12.9966  -13.0947    0.0000 O   0  0  0  0  0  0  0  0  0  0  0  0
   13.3985  -14.6328    0.0000 C   0  0  0  0  0  0  0  0  0  0  0  0
   13.7029  -13.5028    0.0000 C   0  0  0  0  0  0  0  0  0  0  0  0
   10.8515  -14.3273    0.0000 O   0  0  0  0  0  0  0  0  0  0  0  0
   12.2767  -15.1571    0.0000 O   0  0  0  0  0  0  0  0  0  0  0  0
   12.9906  -15.5721    0.0000 C   0  0  0  0  0  0  0  0  0  0  0  0
   12.9881  -16.3978    0.0000 O   0  0  0  0  0  0  0  0  0  0  0  0
   13.7069  -15.1613    0.0000 C   0  0  0  0  0  0  0  0  0  0  0  0
   14.4206  -15.5764    0.0000 C   0  0  0  0  0  0  0  0  0  0  0  0
   15.1369  -15.1656    0.0000 C   0  0  0  0  0  0  0  0  0  0  0  0
   15.8477  -15.5816    0.0000 C   0  0  0  0  0  0  0  0  0  0  0  0
   16.5636  -15.1716    0.0000 C   0  0  0  0  0  0  0  0  0  0  0  0
   16.5665  -14.3450    0.0000 C   0  0  0  0  0  0  0  0  0  0  0  0
   15.8476  -13.9301    0.0000 C   0  0  0  0  0  0  0  0  0  0  0  0
   15.1347  -14.3426    0.0000 C   0  0  0  0  0  0  0  0  0  0  0  0
   15.8440  -16.4072    0.0000 Cl  0  0  0  0  0  0  0  0  0  0  0  0
   17.2822  -13.9333    0.0000 Cl  0  0  0  0  0  0  0  0  0  0  0  0
 18 19  1  0  0  0  0
  9 10  1  0  0  0  0
 19 20  1  0  0  0  0
 21 22  2  0  0  0  0
  5  4  2  0  0  0  0
  4  1  1  0  0  0  0
  2  3  1  0  0  0  0
  9 12  1  0  0  0  0
 10 11  1  0  0  0  0
 21 26  1  0  0  0  0
 22 23  1  0  0  0  0
 23 24  1  0  0  0  0
 24 25  1  0  0  0  0
 25 26  1  0  0  0  0
 11 16  1  0  0  0  0
 25 27  1  0  0  0  0
 15 12  1  0  0  0  0
 25 28  1  0  0  0  0
  5  6  1  0  0  0  0
 23 29  1  6  0  0  0
 12 13  2  0  0  0  0
 24 30  1  6  0  0  0
  3  6  2  0  0  0  0
 30 31  1  0  0  0  0
 11 14  1  0  0  0  0
 31 32  2  0  0  0  0
  6  7  1  0  0  0  0
 31 33  1  0  0  0  0
  7 10  2  0  0  0  0
 33 34  2  0  0  0  0
 15 16  2  0  0  0  0
 34 35  1  0  0  0  0
 16 22  1  0  0  0  0
 35 36  2  0  0  0  0
  1  2  2  0  0  0  0
 36 37  1  0  0  0  0
 21 17  1  0  0  0  0
 37 38  2  0  0  0  0
  9  8  2  0  0  0  0
 38 39  1  0  0  0  0
 17 18  2  0  0  0  0
 39 40  2  0  0  0  0
 40 35  1  0  0  0  0
 18 15  1  0  0  0  0
 36 41  1  0  0  0  0
  8  5  1  0  0  0  0
 38 42  1  0  0  0  0
M  END
>  <Mol Weight>
604.477

>  <Formula>
C33H27Cl2NO6

>  <chembl_id>
CHEMBL503616

$$$$

  Mrv0541 06201412482D          

 45 50  0  0  0  0            999 V2000
    2.9053  -22.3856    0.0000 C   0  0  1  0  0  0  0  0  0  0  0  0
    3.2989  -23.1187    0.0000 C   0  0  2  0  0  0  0  0  0  0  0  0
    4.1232  -23.1541    0.0000 C   0  0  1  0  0  0  0  0  0  0  0  0
    4.1776  -21.7086    0.0000 C   0  0  2  0  0  0  0  0  0  0  0  0
    3.3479  -21.6776    0.0000 C   0  0  0  0  0  0  0  0  0  0  0  0
   -0.7575  -23.3818    0.0000 C   0  0  2  0  0  0  0  0  0  0  0  0
   -0.0454  -23.7996    0.0000 C   0  0  0  0  0  0  0  0  0  0  0  0
   -2.1876  -23.3743    0.0000 C   0  0  0  0  0  0  0  0  0  0  0  0
   -2.9020  -23.7846    0.0000 C   0  0  1  0  0  0  0  0  0  0  0  0
   -2.1806  -22.5445    0.0000 O   0  0  0  0  0  0  0  0  0  0  0  0
   -0.0523  -24.6293    0.0000 O   0  0  0  0  0  0  0  0  0  0  0  0
   -0.7551  -22.5522    0.0000 C   0  0  0  0  0  0  0  0  0  0  0  0
   -0.0406  -22.1447    0.0000 C   0  0  0  0  0  0  0  0  0  0  0  0
    0.6733  -22.5609    0.0000 C   0  0  0  0  0  0  0  0  0  0  0  0
    1.3945  -22.1545    0.0000 C   0  0  0  0  0  0  0  0  0  0  0  0
    1.3975  -21.3279    0.0000 C   0  0  0  0  0  0  0  0  0  0  0  0
    0.6789  -20.9059    0.0000 C   0  0  0  0  0  0  0  0  0  0  0  0
   -0.0420  -21.3190    0.0000 C   0  0  0  0  0  0  0  0  0  0  0  0
    1.3831  -23.8061    0.0000 C   0  0  2  0  0  0  0  0  0  0  0  0
    2.1021  -23.3913    0.0000 B   0  0  0  0  0  0  0  0  0  0  0  0
    1.3807  -24.6313    0.0000 C   0  0  0  0  0  0  0  0  0  0  0  0
    2.8171  -23.8135    0.0000 O   0  0  0  0  0  0  0  0  0  0  0  0
    2.1044  -22.5661    0.0000 O   0  0  0  0  0  0  0  0  0  0  0  0
    3.6796  -23.8515    0.0000 C   0  0  0  0  0  0  0  0  0  0  0  0
    4.6163  -22.4731    0.0000 C   0  0  0  0  0  0  0  0  0  0  0  0
    3.8125  -22.4292    0.0000 C   0  0  0  0  0  0  0  0  0  0  0  0
    3.3087  -22.0679    0.0000 C   0  0  0  0  0  0  0  0  0  0  0  0
    3.3218  -22.6854    0.0000 C   0  0  0  0  0  0  0  0  0  0  0  0
    4.5404  -23.8698    0.0000 H   0  0  0  0  0  0  0  0  0  0  0  0
    4.5949  -20.9929    0.0000 H   0  0  0  0  0  0  0  0  0  0  0  0
    2.4925  -21.6699    0.0000 H   0  0  0  0  0  0  0  0  0  0  0  0
   -4.3295  -24.5985    0.0000 C   0  0  0  0  0  0  0  0  0  0  0  0
   -3.6171  -25.0142    0.0000 C   0  0  0  0  0  0  0  0  0  0  0  0
   -2.8985  -24.6058    0.0000 C   0  0  0  0  0  0  0  0  0  0  0  0
   -4.3234  -23.7741    0.0000 C   0  0  0  0  0  0  0  0  0  0  0  0
   -3.6124  -23.3726    0.0000 C   0  0  0  0  0  0  0  0  0  0  0  0
   -3.6058  -22.5579    0.0000 C   0  0  0  0  0  0  0  0  0  0  0  0
   -4.3093  -22.1438    0.0000 C   0  0  0  0  0  0  0  0  0  0  0  0
   -5.0210  -22.5504    0.0000 C   0  0  0  0  0  0  0  0  0  0  0  0
   -5.0242  -23.3637    0.0000 C   0  0  0  0  0  0  0  0  0  0  0  0
    2.0866  -25.0415    0.0000 C   0  0  0  0  0  0  0  0  0  0  0  0
    2.0842  -25.8579    0.0000 C   0  0  0  0  0  0  0  0  0  0  0  0
    2.7901  -26.2682    0.0000 C   0  0  0  0  0  0  0  0  0  0  0  0
   -1.4748  -23.7896    0.0000 N   0  0  0  0  0  0  0  0  0  0  0  0
    0.6707  -23.3900    0.0000 N   0  0  0  0  0  0  0  0  0  0  0  0
  6 12  1  1  0  0  0
 12 13  1  0  0  0  0
 13 14  2  0  0  0  0
 14 15  1  0  0  0  0
 15 16  2  0  0  0  0
 16 17  1  0  0  0  0
 17 18  2  0  0  0  0
 18 13  1  0  0  0  0
 19 20  1  0  0  0  0
 19 21  1  6  0  0  0
 20 22  1  0  0  0  0
 20 23  1  0  0  0  0
 23  1  1  0  0  0  0
 22  2  1  0  0  0  0
  2 24  1  1  0  0  0
  3 26  1  0  0  0  0
 26  4  1  0  0  0  0
 26 27  1  0  0  0  0
 26 28  1  0  0  0  0
  3 29  1  1  0  0  0
  4 30  1  1  0  0  0
  1 31  1  1  0  0  0
  9 36  1  0  0  0  0
  1  2  1  0  0  0  0
  1  5  1  0  0  0  0
  9 34  1  0  0  0  0
 35 32  1  0  0  0  0
 32 33  1  0  0  0  0
 33 34  1  0  0  0  0
  2  3  1  0  0  0  0
  3 25  1  0  0  0  0
 35 36  2  0  0  0  0
 25  4  1  0  0  0  0
 36 37  1  0  0  0  0
  4  5  1  0  0  0  0
 37 38  2  0  0  0  0
 38 39  1  0  0  0  0
  6  7  1  0  0  0  0
 39 40  2  0  0  0  0
 40 35  1  0  0  0  0
 21 41  1  0  0  0  0
  9  8  1  1  0  0  0
 41 42  1  0  0  0  0
  8 10  2  0  0  0  0
 42 43  1  0  0  0  0
  7 11  2  0  0  0  0
 44  6  1  0  0  0  0
 44  8  1  0  0  0  0
 45 19  1  0  0  0  0
  7 45  1  0  0  0  0
M  END
>  <Mol Weight>
570.57

>  <Formula>
C35H47BN2O4

>  <chembl_id>
CHEMBL499581

$$$$

  Mrv0541 06201412482D          

 42 46  0  0  0  0            999 V2000
   -2.7653   -1.4941    0.0000 C   0  0  0  0  0  0  0  0  0  0  0  0
   -2.7666   -2.3218    0.0000 C   0  0  0  0  0  0  0  0  0  0  0  0
   -2.0536   -2.7346    0.0000 C   0  0  0  0  0  0  0  0  0  0  0  0
   -1.3343   -2.3212    0.0000 C   0  0  0  0  0  0  0  0  0  0  0  0
   -1.3375   -1.4902    0.0000 C   0  0  0  0  0  0  0  0  0  0  0  0
   -2.0556   -1.0813    0.0000 C   0  0  0  0  0  0  0  0  0  0  0  0
   -0.6203   -2.7317    0.0000 C   0  0  0  0  0  0  0  0  0  0  0  0
   -0.6208   -3.5578    0.0000 C   0  0  0  0  0  0  0  0  0  0  0  0
    0.0932   -3.9697    0.0000 C   0  0  0  0  0  0  0  0  0  0  0  0
    0.8083   -3.5564    0.0000 C   0  0  0  0  0  0  0  0  0  0  0  0
    0.8049   -2.7271    0.0000 C   0  0  0  0  0  0  0  0  0  0  0  0
    0.0902   -2.3191    0.0000 C   0  0  0  0  0  0  0  0  0  0  0  0
    0.0872   -1.4941    0.0000 C   0  0  0  0  0  0  0  0  0  0  0  0
    0.8001   -1.0790    0.0000 N   0  0  0  0  0  0  0  0  0  0  0  0
    0.7972   -0.2540    0.0000 C   0  0  0  0  0  0  0  0  0  0  0  0
    1.5161   -1.4890    0.0000 C   0  0  0  0  0  0  0  0  0  0  0  0
    1.5192   -2.3139    0.0000 O   0  0  0  0  0  0  0  0  0  0  0  0
    2.2291   -1.0738    0.0000 N   0  0  0  0  0  0  0  0  0  0  0  0
    2.9451   -1.4837    0.0000 C   0  0  0  0  0  0  0  0  0  0  0  0
    2.9436   -2.3110    0.0000 C   0  0  0  0  0  0  0  0  0  0  0  0
    3.6554   -2.7207    0.0000 C   0  0  0  0  0  0  0  0  0  0  0  0
    4.3708   -2.3091    0.0000 C   0  0  0  0  0  0  0  0  0  0  0  0
    4.3697   -1.4832    0.0000 C   0  0  0  0  0  0  0  0  0  0  0  0
    3.6533   -1.0689    0.0000 C   0  0  0  0  0  0  0  0  0  0  0  0
    1.5101    0.1610    0.0000 C   0  0  0  0  0  0  0  0  0  0  0  0
    1.5071    0.9860    0.0000 C   0  0  0  0  0  0  0  0  0  0  0  0
    2.2189    1.3982    0.0000 C   0  0  0  0  0  0  0  0  0  0  0  0
    2.2163    2.2224    0.0000 C   0  0  0  0  0  0  0  0  0  0  0  0
    1.4997    2.6331    0.0000 C   0  0  0  0  0  0  0  0  0  0  0  0
    0.7844    2.2135    0.0000 C   0  0  0  0  0  0  0  0  0  0  0  0
    0.7907    1.3907    0.0000 C   0  0  0  0  0  0  0  0  0  0  0  0
    0.0670    2.6208    0.0000 O   0  0  0  0  0  0  0  0  0  0  0  0
    0.0612    3.4458    0.0000 C   0  0  0  0  0  0  0  0  0  0  0  0
   -3.4802   -1.0822    0.0000 C   0  0  0  0  0  0  0  0  0  0  0  0
   -3.4808   -0.2572    0.0000 N   0  0  0  0  0  0  0  0  0  0  0  0
   -2.7664    0.1562    0.0000 C   0  0  0  0  0  0  0  0  0  0  0  0
   -2.7652    0.9776    0.0000 C   0  0  1  0  0  0  0  0  0  0  0  0
   -3.4781    1.3934    0.0000 N   0  0  0  0  0  0  0  0  0  0  0  0
   -4.1941    0.9814    0.0000 C   0  0  1  0  0  0  0  0  0  0  0  0
   -4.1970    0.1538    0.0000 C   0  0  0  0  0  0  0  0  0  0  0  0
   -4.9074    1.3958    0.0000 C   0  0  0  0  0  0  0  0  0  0  0  0
   -2.0494    1.3880    0.0000 C   0  0  0  0  0  0  0  0  0  0  0  0
  2  3  1  0  0  0  0
 10 11  1  0  0  0  0
  5  6  2  0  0  0  0
 11 12  2  0  0  0  0
 19 24  1  0  0  0  0
 20 21  1  0  0  0  0
 21 22  1  0  0  0  0
 22 23  1  0  0  0  0
 23 24  1  0  0  0  0
 12  7  1  0  0  0  0
 15 25  1  0  0  0  0
  4  7  1  0  0  0  0
 25 26  1  0  0  0  0
  6  1  1  0  0  0  0
 26 27  2  0  0  0  0
 12 13  1  0  0  0  0
 27 28  1  0  0  0  0
  1  2  2  0  0  0  0
 28 29  2  0  0  0  0
 13 14  1  0  0  0  0
 29 30  1  0  0  0  0
  3  4  2  0  0  0  0
 30 31  2  0  0  0  0
 31 26  1  0  0  0  0
 14 15  1  0  0  0  0
 30 32  1  0  0  0  0
  7  8  2  0  0  0  0
 32 33  1  0  0  0  0
 14 16  1  0  0  0  0
  1 34  1  0  0  0  0
 34 35  1  0  0  0  0
 35 36  1  0  0  0  0
 16 17  2  0  0  0  0
  8  9  1  0  0  0  0
 16 18  1  0  0  0  0
  4  5  1  0  0  0  0
 18 19  1  0  0  0  0
 35 40  1  0  0  0  0
 36 37  1  0  0  0  0
 37 38  1  0  0  0  0
 38 39  1  0  0  0  0
 39 40  1  0  0  0  0
 19 20  1  0  0  0  0
 39 41  1  1  0  0  0
  9 10  2  0  0  0  0
 37 42  1  1  0  0  0
M  END
>  <Mol Weight>
568.7919

>  <Formula>
C36H48N4O2

>  <chembl_id>
CHEMBL501315

$$$$

  Mrv0541 06201412482D          

 42 45  0  0  0  0            999 V2000
    1.5881  -14.2596    0.0000 C   0  0  0  0  0  0  0  0  0  0  0  0
    3.7892  -12.8335    0.0000 N   0  0  0  0  0  0  0  0  0  0  0  0
    1.6371  -13.4366    0.0000 N   0  0  0  0  0  0  0  0  0  0  0  0
    2.3685  -13.0084    0.0000 C   0  0  2  0  0  0  0  0  0  0  0  0
    3.2318  -14.1509    0.0000 O   0  0  0  0  0  0  0  0  0  0  0  0
    3.1286  -13.3307    0.0000 C   0  0  0  0  0  0  0  0  0  0  0  0
    2.1862  -12.2046    0.0000 C   0  0  0  0  0  0  0  0  0  0  0  0
    1.0388  -12.8905    0.0000 C   0  0  0  0  0  0  0  0  0  0  0  0
    1.3636  -12.1325    0.0000 C   0  0  0  0  0  0  0  0  0  0  0  0
    2.3040  -14.6721    0.0000 O   0  0  0  0  0  0  0  0  0  0  0  0
    0.8738  -14.6724    0.0000 C   0  0  0  0  0  0  0  0  0  0  0  0
    0.1613  -16.7307    0.0000 C   0  0  0  0  0  0  0  0  0  0  0  0
    1.5979  -16.7210    0.0000 C   0  0  0  0  0  0  0  0  0  0  0  0
    0.8772  -17.1432    0.0000 C   0  0  0  0  0  0  0  0  0  0  0  0
    0.8745  -17.9613    0.0000 C   0  0  0  0  0  0  0  0  0  0  0  0
    1.5980  -18.3670    0.0000 C   0  0  0  0  0  0  0  0  0  0  0  0
    2.3105  -17.9518    0.0000 C   0  0  0  0  0  0  0  0  0  0  0  0
    2.3047  -17.1291    0.0000 C   0  0  0  0  0  0  0  0  0  0  0  0
    3.0264  -18.3643    0.0000 O   0  0  0  0  0  0  0  0  0  0  0  0
    0.1606  -15.9057    0.0000 C   0  0  0  0  0  0  0  0  0  0  0  0
   -1.2695  -14.2547    0.0000 N   0  0  0  0  0  0  0  0  0  0  0  0
   -3.4129  -14.6672    0.0000 N   0  0  0  0  0  0  0  0  0  0  0  0
   -2.6970  -14.2547    0.0000 C   0  0  2  0  0  0  0  0  0  0  0  0
   -1.9853  -15.4922    0.0000 O   0  0  0  0  0  0  0  0  0  0  0  0
   -1.9853  -14.6672    0.0000 C   0  0  0  0  0  0  0  0  0  0  0  0
   -2.6970  -13.4297    0.0000 C   0  0  0  0  0  0  0  0  0  0  0  0
   -3.4129  -13.0172    0.0000 C   0  0  0  0  0  0  0  0  0  0  0  0
   -1.9853  -13.0172    0.0000 C   0  0  0  0  0  0  0  0  0  0  0  0
   -0.5553  -14.6678    0.0000 C   0  0  0  0  0  0  0  0  0  0  0  0
    0.1600  -14.2560    0.0000 C   0  0  0  0  0  0  0  0  0  0  0  0
   -0.5565  -15.4949    0.0000 C   0  0  0  0  0  0  0  0  0  0  0  0
    0.8761  -15.4942    0.0000 C   0  0  0  0  0  0  0  0  0  0  0  0
    4.5098  -13.2351    0.0000 C   0  0  0  0  0  0  0  0  0  0  0  0
    5.2180  -12.8119    0.0000 C   0  0  0  0  0  0  0  0  0  0  0  0
    5.9368  -13.2154    0.0000 C   0  0  0  0  0  0  0  0  0  0  0  0
    6.6445  -12.7929    0.0000 C   0  0  0  0  0  0  0  0  0  0  0  0
    6.6325  -11.9671    0.0000 C   0  0  0  0  0  0  0  0  0  0  0  0
    5.9068  -11.5657    0.0000 C   0  0  0  0  0  0  0  0  0  0  0  0
    5.2021  -11.9905    0.0000 C   0  0  0  0  0  0  0  0  0  0  0  0
    5.9479  -14.0404    0.0000 C   0  0  0  0  0  0  0  0  0  0  0  0
    5.2441  -14.4624    0.0000 O   0  0  0  0  0  0  0  0  0  0  0  0
    6.6729  -14.4433    0.0000 O   0  0  0  0  0  0  0  0  0  0  0  0
  1 11  1  0  0  0  0
  3  4  1  0  0  0  0
  4  6  1  1  0  0  0
  6  5  2  0  0  0  0
  4  7  1  0  0  0  0
  8  9  1  0  0  0  0
 22 23  1  0  0  0  0
 23 25  1  0  0  0  0
 25 24  2  0  0  0  0
 23 26  1  1  0  0  0
 26 27  1  0  0  0  0
 26 28  1  0  0  0  0
 25 21  1  0  0  0  0
  9  7  1  0  0  0  0
 21 29  1  0  0  0  0
  8  3  1  0  0  0  0
 11 30  2  0  0  0  0
 30 29  1  0  0  0  0
  6  2  1  0  0  0  0
 29 31  2  0  0  0  0
 31 20  1  0  0  0  0
 12 14  1  0  0  0  0
 20 32  2  0  0  0  0
 32 11  1  0  0  0  0
 13 14  2  0  0  0  0
  2 33  1  0  0  0  0
 14 15  1  0  0  0  0
 33 34  1  0  0  0  0
 15 16  2  0  0  0  0
 34 35  2  0  0  0  0
 16 17  1  0  0  0  0
 35 36  1  0  0  0  0
 17 18  2  0  0  0  0
 36 37  2  0  0  0  0
 18 13  1  0  0  0  0
 37 38  1  0  0  0  0
 17 19  1  0  0  0  0
 38 39  2  0  0  0  0
 39 34  1  0  0  0  0
  1 10  2  0  0  0  0
 35 40  1  0  0  0  0
 12 20  1  0  0  0  0
  1  3  1  0  0  0  0
 40 41  1  0  0  0  0
 40 42  2  0  0  0  0
M  END
>  <Mol Weight>
572.6514

>  <Formula>
C32H36N4O6

>  <chembl_id>
CHEMBL501326

$$$$

  Mrv0541 06201412482D          

 42 47  0  0  0  0            999 V2000
    2.8265   -1.5171    0.0000 C   0  0  0  0  0  0  0  0  0  0  0  0
    2.8252   -2.3448    0.0000 C   0  0  0  0  0  0  0  0  0  0  0  0
    3.5383   -2.7578    0.0000 C   0  0  0  0  0  0  0  0  0  0  0  0
    4.2545   -1.5132    0.0000 C   0  0  0  0  0  0  0  0  0  0  0  0
    3.5363   -1.1044    0.0000 C   0  0  0  0  0  0  0  0  0  0  0  0
    4.9670   -1.0971    0.0000 C   0  0  0  0  0  0  0  0  0  0  0  0
    5.6835   -1.5061    0.0000 N   0  0  0  0  0  0  0  0  0  0  0  0
    4.9629   -0.2720    0.0000 O   0  0  0  0  0  0  0  0  0  0  0  0
    3.5325   -0.2793    0.0000 N   0  0  0  0  0  0  0  0  0  0  0  0
    5.6812   -2.3295    0.0000 C   0  0  1  0  0  0  0  0  0  0  0  0
    6.3938   -2.7384    0.0000 C   0  0  0  0  0  0  0  0  0  0  0  0
    6.3895   -1.0863    0.0000 C   0  0  0  0  0  0  0  0  0  0  0  0
    7.1065   -1.4998    0.0000 C   0  0  0  0  0  0  0  0  0  0  0  0
    7.1066   -2.3223    0.0000 C   0  0  0  0  0  0  0  0  0  0  0  0
    7.8178   -2.7316    0.0000 C   0  0  0  0  0  0  0  0  0  0  0  0
    8.5293   -2.3196    0.0000 C   0  0  0  0  0  0  0  0  0  0  0  0
    8.5253   -1.4941    0.0000 C   0  0  0  0  0  0  0  0  0  0  0  0
    7.8135   -1.0884    0.0000 C   0  0  0  0  0  0  0  0  0  0  0  0
    4.1991    0.2095    0.0000 N   0  0  0  0  0  0  0  0  0  0  0  0
    3.9405    0.9929    0.0000 C   0  0  0  0  0  0  0  0  0  0  0  0
    3.1153    0.9891    0.0000 C   0  0  0  0  0  0  0  0  0  0  0  0
    2.8642    0.2032    0.0000 C   0  0  0  0  0  0  0  0  0  0  0  0
    2.0805   -0.0549    0.0000 C   0  0  0  0  0  0  0  0  0  0  0  0
    4.4223    1.6627    0.0000 C   0  0  0  0  0  0  0  0  0  0  0  0
    5.2437    1.6639    0.0000 N   0  0  0  0  0  0  0  0  0  0  0  0
    4.0454    2.3966    0.0000 O   0  0  0  0  0  0  0  0  0  0  0  0
    5.6552    2.3790    0.0000 C   0  0  0  0  0  0  0  0  0  0  0  0
    6.4814    2.3784    0.0000 C   0  0  0  0  0  0  0  0  0  0  0  0
    6.8928    3.0926    0.0000 C   0  0  0  0  0  0  0  0  0  0  0  0
    6.4791    3.8076    0.0000 C   0  0  0  0  0  0  0  0  0  0  0  0
    5.6498    3.8037    0.0000 C   0  0  0  0  0  0  0  0  0  0  0  0
    5.2422    3.0888    0.0000 C   0  0  0  0  0  0  0  0  0  0  0  0
    5.6573    0.9499    0.0000 C   0  0  0  0  0  0  0  0  0  0  0  0
    5.2436    0.2385    0.0000 C   0  0  0  0  0  0  0  0  0  0  0  0
    5.6565   -0.4749    0.0000 C   0  0  0  0  0  0  0  0  0  0  0  0
    6.4824   -0.4741    0.0000 C   0  0  0  0  0  0  0  0  0  0  0  0
    6.8937    0.2460    0.0000 C   0  0  0  0  0  0  0  0  0  0  0  0
    6.4785    0.9564    0.0000 C   0  0  0  0  0  0  0  0  0  0  0  0
    4.9667   -2.7419    0.0000 C   0  0  0  0  0  0  0  0  0  0  0  0
    4.2522   -2.3293    0.0000 C   0  0  0  0  0  0  0  0  0  0  0  0
    4.9666   -3.5670    0.0000 O   0  0  0  0  0  0  0  0  0  0  0  0
    4.2520   -3.9794    0.0000 C   0  0  0  0  0  0  0  0  0  0  0  0
  5  9  1  0  0  0  0
  7 10  1  0  0  0  0
 19 20  2  0  0  0  0
 20 21  1  0  0  0  0
 21 22  2  0  0  0  0
 22  9  1  0  0  0  0
  4  5  2  0  0  0  0
 22 23  1  0  0  0  0
  5  1  1  0  0  0  0
 20 24  1  0  0  0  0
  7 12  1  0  0  0  0
 24 25  1  0  0  0  0
 10 11  1  0  0  0  0
 24 26  2  0  0  0  0
 11 14  1  0  0  0  0
 25 27  1  0  0  0  0
 13 12  1  0  0  0  0
 27 28  2  0  0  0  0
  2  3  1  0  0  0  0
 28 29  1  0  0  0  0
  4  6  1  0  0  0  0
 29 30  2  0  0  0  0
 13 14  2  0  0  0  0
 30 31  1  0  0  0  0
  3 40  2  0  0  0  0
 31 32  2  0  0  0  0
 32 27  1  0  0  0  0
 14 15  1  0  0  0  0
 25 33  1  0  0  0  0
  6  7  1  0  0  0  0
 33 34  2  0  0  0  0
 15 16  2  0  0  0  0
 34 35  1  0  0  0  0
  1  2  2  0  0  0  0
 35 36  2  0  0  0  0
 16 17  1  0  0  0  0
 36 37  1  0  0  0  0
  6  8  2  0  0  0  0
 37 38  2  0  0  0  0
 38 33  1  0  0  0  0
 17 18  2  0  0  0  0
 10 39  1  1  0  0  0
 18 13  1  0  0  0  0
  9 19  1  0  0  0  0
 39 41  1  0  0  0  0
 40  4  1  0  0  0  0
 41 42  1  0  0  0  0
M  END
>  <Mol Weight>
556.6536

>  <Formula>
C35H32N4O3

>  <chembl_id>
CHEMBL501871

$$$$

  Mrv0541 06201412482D          

 43 48  0  0  0  0            999 V2000
   -1.6400   -9.8420    0.0000 N   0  0  0  0  0  0  0  0  0  0  0  0
   -1.5977  -11.6939    0.0000 N   0  0  0  0  0  0  0  0  0  0  0  0
   -0.7970  -11.4902    0.0000 C   0  0  0  0  0  0  0  0  0  0  0  0
   -0.8315  -10.0073    0.0000 C   0  0  0  0  0  0  0  0  0  0  0  0
   -0.4533  -10.7413    0.0000 C   0  0  0  0  0  0  0  0  0  0  0  0
    0.3668  -10.7804    0.0000 C   0  0  0  0  0  0  0  0  0  0  0  0
    0.8149  -10.0877    0.0000 C   0  0  0  0  0  0  0  0  0  0  0  0
    0.4367   -9.3538    0.0000 C   0  0  0  0  0  0  0  0  0  0  0  0
   -0.3896   -9.3126    0.0000 C   0  0  0  0  0  0  0  0  0  0  0  0
   -2.2552  -11.1930    0.0000 C   0  0  0  0  0  0  0  0  0  0  0  0
   -2.2717  -10.3664    0.0000 C   0  0  0  0  0  0  0  0  0  0  0  0
   -2.9946   -9.9691    0.0000 C   0  0  0  0  0  0  0  0  0  0  0  0
   -3.7016  -10.3973    0.0000 C   0  0  0  0  0  0  0  0  0  0  0  0
   -3.6811  -11.2270    0.0000 C   0  0  0  0  0  0  0  0  0  0  0  0
   -2.9576  -11.6205    0.0000 C   0  0  0  0  0  0  0  0  0  0  0  0
   -2.1904  -12.2677    0.0000 C   0  0  0  0  0  0  0  0  0  0  0  0
   -2.9840  -12.0412    0.0000 O   0  0  0  0  0  0  0  0  0  0  0  0
   -1.9898  -13.0682    0.0000 C   0  0  0  0  0  0  0  0  0  0  0  0
    0.7438  -11.5145    0.0000 O   0  0  0  0  0  0  0  0  0  0  0  0
    0.2190   -8.5557    0.0000 C   0  0  0  0  0  0  0  0  0  0  0  0
    1.1473   -8.9414    0.0000 C   0  0  0  0  0  0  0  0  0  0  0  0
   -3.0120   -9.1441    0.0000 O   0  0  0  0  0  0  0  0  0  0  0  0
   -0.2721  -12.1227    0.0000 C   0  0  0  0  0  0  0  0  0  0  0  0
   -0.5585  -12.8979    0.0000 C   0  0  0  0  0  0  0  0  0  0  0  0
   -0.0309  -13.5314    0.0000 C   0  0  0  0  0  0  0  0  0  0  0  0
    0.7832  -13.3911    0.0000 C   0  0  0  0  0  0  0  0  0  0  0  0
    1.0669  -12.6116    0.0000 C   0  0  0  0  0  0  0  0  0  0  0  0
    0.5374  -11.9814    0.0000 C   0  0  0  0  0  0  0  0  0  0  0  0
    1.3124  -14.0243    0.0000 O   0  0  0  0  0  0  0  0  0  0  0  0
    1.0287  -14.7992    0.0000 C   0  0  0  0  0  0  0  0  0  0  0  0
    1.5578  -15.4323    0.0000 C   0  0  0  0  0  0  0  0  0  0  0  0
    1.2730  -16.2046    0.0000 C   0  0  0  0  0  0  0  0  0  0  0  0
    1.8015  -16.8374    0.0000 C   0  0  0  0  0  0  0  0  0  0  0  0
    2.6154  -16.6960    0.0000 C   0  0  0  0  0  0  0  0  0  0  0  0
    2.8982  -15.9162    0.0000 C   0  0  0  0  0  0  0  0  0  0  0  0
    2.3678  -15.2867    0.0000 C   0  0  0  0  0  0  0  0  0  0  0  0
    1.3587  -11.9782    0.0000 F   0  0  0  0  0  0  0  0  0  0  0  0
   -2.5855  -13.6377    0.0000 N   0  0  0  0  0  0  0  0  0  0  0  0
   -2.3854  -14.4375    0.0000 C   0  0  0  0  0  0  0  0  0  0  0  0
   -1.5912  -14.6646    0.0000 C   0  0  0  0  0  0  0  0  0  0  0  0
   -0.9971  -14.0858    0.0000 C   0  0  0  0  0  0  0  0  0  0  0  0
   -1.2002  -13.2882    0.0000 C   0  0  0  0  0  0  0  0  0  0  0  0
   -2.9786  -15.0111    0.0000 F   0  0  0  0  0  0  0  0  0  0  0  0
  8  9  1  0  0  0  0
  8 21  1  0  0  0  0
  4  5  2  0  0  0  0
 12 22  1  0  0  0  0
  1  4  1  0  0  0  0
 10 11  2  0  0  0  0
 23 24  2  0  0  0  0
 24 25  1  0  0  0  0
 11 12  1  0  0  0  0
 25 26  2  0  0  0  0
 10  2  1  0  0  0  0
 26 27  1  0  0  0  0
 12 13  2  0  0  0  0
 27 28  2  0  0  0  0
 28 23  1  0  0  0  0
  3 23  1  0  0  0  0
 11  1  1  0  0  0  0
 26 29  1  0  0  0  0
 13 14  1  0  0  0  0
 29 30  1  0  0  0  0
  5  3  1  0  0  0  0
 30 31  1  0  0  0  0
 14 15  2  0  0  0  0
 31 32  2  0  0  0  0
 15 10  1  0  0  0  0
 32 33  1  0  0  0  0
  2  3  1  0  0  0  0
 33 34  2  0  0  0  0
  2 16  1  0  0  0  0
 34 35  1  0  0  0  0
  4  9  1  0  0  0  0
 35 36  2  0  0  0  0
 36 31  1  0  0  0  0
 16 17  2  0  0  0  0
 28 37  1  0  0  0  0
  5  6  1  0  0  0  0
 18 38  2  0  0  0  0
 16 18  1  0  0  0  0
 38 39  1  0  0  0  0
  6  7  1  0  0  0  0
 39 40  2  0  0  0  0
  6 19  2  0  0  0  0
 40 41  1  0  0  0  0
  7  8  1  0  0  0  0
 41 42  2  0  0  0  0
 42 18  1  0  0  0  0
  8 20  1  0  0  0  0
 39 43  1  0  0  0  0
M  END
>  <Mol Weight>
581.6086

>  <Formula>
C34H29F2N3O4

>  <chembl_id>
CHEMBL501874

$$$$

  Mrv0541 06201412482D          

 41 46  0  0  0  0            999 V2000
   -4.2796  -15.8365    0.0000 C   0  0  0  0  0  0  0  0  0  0  0  0
   -5.0030  -16.2355    0.0000 C   0  0  0  0  0  0  0  0  0  0  0  0
   -5.0191  -17.0578    0.0000 C   0  0  0  0  0  0  0  0  0  0  0  0
   -3.5760  -16.2568    0.0000 C   0  0  0  0  0  0  0  0  0  0  0  0
   -3.5858  -17.0817    0.0000 C   0  0  0  0  0  0  0  0  0  0  0  0
   -4.3081  -17.4826    0.0000 C   0  0  0  0  0  0  0  0  0  0  0  0
   -4.3209  -18.3066    0.0000 N   0  0  0  0  0  0  0  0  0  0  0  0
   -2.8801  -17.5020    0.0000 C   0  0  0  0  0  0  0  0  0  0  0  0
   -2.8894  -18.3247    0.0000 C   0  0  0  0  0  0  0  0  0  0  0  0
   -3.6152  -18.7285    0.0000 C   0  0  0  0  0  0  0  0  0  0  0  0
   -3.6282  -19.5542    0.0000 C   0  0  0  0  0  0  0  0  0  0  0  0
   -2.9174  -19.9825    0.0000 C   0  0  0  0  0  0  0  0  0  0  0  0
   -2.1917  -19.5787    0.0000 C   0  0  0  0  0  0  0  0  0  0  0  0
   -2.1769  -18.7467    0.0000 C   0  0  0  0  0  0  0  0  0  0  0  0
   -2.1618  -17.0991    0.0000 N   0  0  0  0  0  0  0  0  0  0  0  0
   -1.4538  -17.5198    0.0000 C   0  0  0  0  0  0  0  0  0  0  0  0
   -0.7354  -17.1169    0.0000 C   0  0  0  0  0  0  0  0  0  0  0  0
   -0.0273  -17.5376    0.0000 C   0  0  0  0  0  0  0  0  0  0  0  0
    0.6909  -17.1347    0.0000 C   0  0  0  0  0  0  0  0  0  0  0  0
    1.3990  -17.5553    0.0000 N   0  0  0  0  0  0  0  0  0  0  0  0
    2.1173  -17.1524    0.0000 C   0  0  0  0  0  0  0  0  0  0  0  0
    2.8254  -17.5731    0.0000 C   0  0  0  0  0  0  0  0  0  0  0  0
    3.5437  -17.1702    0.0000 C   0  0  0  0  0  0  0  0  0  0  0  0
    4.2526  -17.5854    0.0000 S   0  0  0  0  0  0  0  0  0  0  0  0
    6.3852  -18.8228    0.0000 C   0  0  0  0  0  0  0  0  0  0  0  0
    7.1039  -18.4153    0.0000 C   0  0  0  0  0  0  0  0  0  0  0  0
    7.1101  -17.5928    0.0000 C   0  0  0  0  0  0  0  0  0  0  0  0
    5.6766  -18.4109    0.0000 C   0  0  0  0  0  0  0  0  0  0  0  0
    5.6767  -17.5859    0.0000 C   0  0  0  0  0  0  0  0  0  0  0  0
    6.3941  -17.1765    0.0000 C   0  0  0  0  0  0  0  0  0  0  0  0
    6.3972  -16.3524    0.0000 N   0  0  0  0  0  0  0  0  0  0  0  0
    4.9660  -17.1740    0.0000 C   0  0  0  0  0  0  0  0  0  0  0  0
    4.9656  -16.3513    0.0000 C   0  0  0  0  0  0  0  0  0  0  0  0
    5.6865  -15.9390    0.0000 C   0  0  0  0  0  0  0  0  0  0  0  0
    5.6898  -15.1131    0.0000 C   0  0  0  0  0  0  0  0  0  0  0  0
    4.9739  -14.6933    0.0000 C   0  0  0  0  0  0  0  0  0  0  0  0
    4.2530  -15.1056    0.0000 C   0  0  0  0  0  0  0  0  0  0  0  0
    4.2481  -15.9378    0.0000 C   0  0  0  0  0  0  0  0  0  0  0  0
    1.3888  -18.3788    0.0000 C   0  0  0  0  0  0  0  0  0  0  0  0
    0.6705  -18.7817    0.0000 O   0  0  0  0  0  0  0  0  0  0  0  0
    2.0968  -18.7994    0.0000 C   0  0  0  0  0  0  0  0  0  0  0  0
  9 10  1  0  0  0  0
 19 20  1  0  0  0  0
  5  4  2  0  0  0  0
 20 21  1  0  0  0  0
  4  1  1  0  0  0  0
 21 22  1  0  0  0  0
 22 23  1  0  0  0  0
  2  3  1  0  0  0  0
 23 24  1  0  0  0  0
  5  6  1  0  0  0  0
  3  6  2  0  0  0  0
 25 26  2  0  0  0  0
  9 14  1  0  0  0  0
 26 27  1  0  0  0  0
 27 30  2  0  0  0  0
 10 11  1  0  0  0  0
 29 28  2  0  0  0  0
 28 25  1  0  0  0  0
 11 12  1  0  0  0  0
 12 13  1  0  0  0  0
 29 30  1  0  0  0  0
 13 14  1  0  0  0  0
 30 31  1  0  0  0  0
 31 34  2  0  0  0  0
  6  7  1  0  0  0  0
 33 32  2  0  0  0  0
 32 29  1  0  0  0  0
 33 34  1  0  0  0  0
  8 15  1  0  0  0  0
  7 10  2  0  0  0  0
 15 16  1  0  0  0  0
  1  2  2  0  0  0  0
 16 17  1  0  0  0  0
  9  8  2  0  0  0  0
 33 38  1  0  0  0  0
 34 35  1  0  0  0  0
 35 36  1  0  0  0  0
 36 37  1  0  0  0  0
 37 38  1  0  0  0  0
 32 24  1  0  0  0  0
 17 18  1  0  0  0  0
 20 39  1  0  0  0  0
  8  5  1  0  0  0  0
 39 40  2  0  0  0  0
 18 19  1  0  0  0  0
 39 41  1  0  0  0  0
M  END
>  <Mol Weight>
566.799

>  <Formula>
C35H42N4OS

>  <chembl_id>
CHEMBL501587

$$$$

  Mrv0541 06201412482D          

 42 44  0  0  0  0            999 V2000
   13.2173   -8.7286    0.0000 C   0  0  0  0  0  0  0  0  0  0  0  0
   13.2173   -9.5541    0.0000 C   0  0  1  0  0  0  0  0  0  0  0  0
   13.9304   -9.9648    0.0000 C   0  0  2  0  0  0  0  0  0  0  0  0
   13.9304   -8.3137    0.0000 C   0  0  0  0  0  0  0  0  0  0  0  0
   14.6435   -8.7286    0.0000 C   0  0  1  0  0  0  0  0  0  0  0  0
   14.6400   -9.5541    0.0000 C   0  0  1  0  0  0  0  0  0  0  0  0
   15.3498   -9.9697    0.0000 C   0  0  0  0  0  0  0  0  0  0  0  0
   16.0676   -9.5602    0.0000 C   0  0  0  0  0  0  0  0  0  0  0  0
   16.0711   -8.7346    0.0000 C   0  0  0  0  0  0  0  0  0  0  0  0
   15.3568   -8.3186    0.0000 C   0  0  1  0  0  0  0  0  0  0  0  0
   16.7888   -8.3276    0.0000 C   0  0  0  0  0  0  0  0  0  0  0  0
   14.6361   -7.9030    0.0000 C   0  0  0  0  0  0  0  0  0  0  0  0
   14.6319  -10.3755    0.0000 H   0  0  0  0  0  0  0  0  0  0  0  0
   13.3417  -10.5457    0.0000 C   0  0  0  0  0  0  0  0  0  0  0  0
   14.3374  -10.6742    0.0000 C   0  0  0  0  0  0  0  0  0  0  0  0
   13.5490  -11.3446    0.0000 C   0  0  0  0  0  0  0  0  0  0  0  0
   12.9602  -11.9256    0.0000 C   0  0  0  0  0  0  0  0  0  0  0  0
   12.5065   -9.9700    0.0000 O   0  0  0  0  0  0  0  0  0  0  0  0
   16.0616   -7.0713    0.0000 C   0  0  0  0  0  0  0  0  0  0  0  0
   16.7770   -7.4840    0.0000 C   0  0  0  0  0  0  0  0  0  0  0  0
   17.4885   -7.0638    0.0000 O   0  0  0  0  0  0  0  0  0  0  0  0
   17.4819   -6.2374    0.0000 C   0  0  0  0  0  0  0  0  0  0  0  0
   16.7578   -5.8330    0.0000 C   0  0  0  0  0  0  0  0  0  0  0  0
   16.0493   -6.2515    0.0000 C   0  0  0  0  0  0  0  0  0  0  0  0
   17.6023   -7.4840    0.0000 O   0  0  0  0  0  0  0  0  0  0  0  0
   18.0131   -8.1953    0.0000 C   0  0  0  0  0  0  0  0  0  0  0  0
   18.1933   -5.8196    0.0000 C   0  0  0  0  0  0  0  0  0  0  0  0
   16.7456   -5.0060    0.0000 C   0  0  0  0  0  0  0  0  0  0  0  0
   15.3282   -5.8507    0.0000 O   0  0  0  0  0  0  0  0  0  0  0  0
   15.3438   -7.4860    0.0000 C   0  0  0  0  0  0  0  0  0  0  0  0
   13.1675  -12.7205    0.0000 C   0  0  0  0  0  0  0  0  0  0  0  0
   12.5829  -13.2974    0.0000 C   0  0  0  0  0  0  0  0  0  0  0  0
   13.9596  -12.9383    0.0000 C   0  0  0  0  0  0  0  0  0  0  0  0
   11.7928   -9.5634    0.0000 C   0  0  0  0  0  0  0  0  0  0  0  0
   11.0838   -9.9782    0.0000 C   0  0  1  0  0  0  0  0  0  0  0  0
   11.7880   -8.7420    0.0000 O   0  0  0  0  0  0  0  0  0  0  0  0
   10.3701   -9.5717    0.0000 C   0  0  2  0  0  0  0  0  0  0  0  0
   11.0886  -10.7996    0.0000 O   0  0  0  0  0  0  0  0  0  0  0  0
   10.3796  -11.2145    0.0000 C   0  0  0  0  0  0  0  0  0  0  0  0
    9.6611   -9.9865    0.0000 C   0  0  0  0  0  0  0  0  0  0  0  0
   10.3653   -8.7503    0.0000 C   0  0  0  0  0  0  0  0  0  0  0  0
    8.9473   -9.5800    0.0000 C   0  0  0  0  0  0  0  0  0  0  0  0
 19 20  2  0  0  0  0
  8  9  1  0  0  0  0
 20 21  1  0  0  0  0
  9 10  1  0  0  0  0
 21 22  1  0  0  0  0
  5  6  1  0  0  0  0
 22 23  2  0  0  0  0
  9 11  2  0  0  0  0
 23 24  1  0  0  0  0
 24 19  1  0  0  0  0
 20 25  1  0  0  0  0
  5 12  1  1  0  0  0
 25 26  1  0  0  0  0
  1  2  1  0  0  0  0
 22 27  1  0  0  0  0
  6 13  1  6  0  0  0
 23 28  1  0  0  0  0
  1  4  1  0  0  0  0
 24 29  2  0  0  0  0
  3 14  1  0  0  0  0
  2  3  1  0  0  0  0
 17 31  2  0  0  0  0
  3 15  1  1  0  0  0
 31 32  1  0  0  0  0
  3  6  1  0  0  0  0
 31 33  1  0  0  0  0
 14 16  1  0  0  0  0
 18 34  1  0  0  0  0
  5  4  1  0  0  0  0
 34 35  1  0  0  0  0
 16 17  1  0  0  0  0
 34 36  2  0  0  0  0
  5 10  1  0  0  0  0
 35 37  1  0  0  0  0
  2 18  1  1  0  0  0
 35 38  1  6  0  0  0
 10 30  1  6  0  0  0
 38 39  1  0  0  0  0
  6  7  1  0  0  0  0
 37 40  1  0  0  0  0
 30 19  1  0  0  0  0
 37 41  1  6  0  0  0
  7  8  1  0  0  0  0
 40 42  1  0  0  0  0
M  END
>  <Mol Weight>
570.7997

>  <Formula>
C35H54O6

>  <chembl_id>
CHEMBL500179

$$$$

  Mrv0541 06201412482D          

 44 45  0  0  0  0            999 V2000
   17.8483  -13.3695    0.0000 C   0  0  0  0  0  0  0  0  0  0  0  0
   18.5951  -13.7101    0.0000 C   0  0  0  0  0  0  0  0  0  0  0  0
   19.1537  -13.1028    0.0000 O   0  0  0  0  0  0  0  0  0  0  0  0
   18.7488  -12.3839    0.0000 C   0  0  2  0  0  0  0  0  0  0  0  0
   17.9401  -12.5470    0.0000 C   0  0  0  0  0  0  0  0  0  0  0  0
   18.7591  -14.5205    0.0000 O   0  0  0  0  0  0  0  0  0  0  0  0
   19.0931  -11.6323    0.0000 C   0  0  0  0  0  0  0  0  0  0  0  0
    3.5600  -13.2429    0.0000 C   0  0  0  0  0  0  0  0  0  0  0  0
    4.2692  -13.6595    0.0000 C   0  0  0  0  0  0  0  0  0  0  0  0
    4.9880  -13.2547    0.0000 C   0  0  0  0  0  0  0  0  0  0  0  0
    5.6971  -13.6724    0.0000 C   0  0  1  0  0  0  0  0  0  0  0  0
    7.8440  -13.2802    0.0000 C   0  0  2  0  0  0  0  0  0  0  0  0
    8.5531  -13.6979    0.0000 C   0  0  1  0  0  0  0  0  0  0  0  0
    9.2720  -13.2930    0.0000 C   0  0  0  0  0  0  0  0  0  0  0  0
    9.9811  -13.7106    0.0000 C   0  0  0  0  0  0  0  0  0  0  0  0
   10.6999  -13.3058    0.0000 C   0  0  0  0  0  0  0  0  0  0  0  0
   11.4090  -13.7235    0.0000 C   0  0  0  0  0  0  0  0  0  0  0  0
   12.1280  -13.3186    0.0000 C   0  0  0  0  0  0  0  0  0  0  0  0
   12.8371  -13.7363    0.0000 C   0  0  0  0  0  0  0  0  0  0  0  0
   13.5559  -13.3313    0.0000 C   0  0  0  0  0  0  0  0  0  0  0  0
   14.2650  -13.7490    0.0000 C   0  0  0  0  0  0  0  0  0  0  0  0
   14.9839  -13.3442    0.0000 C   0  0  0  0  0  0  0  0  0  0  0  0
   15.6930  -13.7618    0.0000 C   0  0  0  0  0  0  0  0  0  0  0  0
    5.6891  -14.4990    0.0000 O   0  0  0  0  0  0  0  0  0  0  0  0
    6.4179  -13.2731    0.0000 C   0  0  2  0  0  0  0  0  0  0  0  0
    7.1239  -13.6798    0.0000 O   0  0  0  0  0  0  0  0  0  0  0  0
    6.6290  -12.4705    0.0000 C   0  0  0  0  0  0  0  0  0  0  0  0
    7.6228  -12.4746    0.0000 C   0  0  0  0  0  0  0  0  0  0  0  0
    8.5451  -14.5247    0.0000 O   0  0  0  0  0  0  0  0  0  0  0  0
   12.8291  -14.5629    0.0000 O   0  0  0  0  0  0  0  0  0  0  0  0
   -2.8585  -13.7352    0.0000 C   0  0  0  0  0  0  0  0  0  0  0  0
   -2.1483  -13.3152    0.0000 C   0  0  0  0  0  0  0  0  0  0  0  0
   -1.4305  -13.7179    0.0000 C   0  0  0  0  0  0  0  0  0  0  0  0
   -0.7203  -13.2979    0.0000 C   0  0  0  0  0  0  0  0  0  0  0  0
   -0.0026  -13.7005    0.0000 C   0  0  0  0  0  0  0  0  0  0  0  0
    0.7076  -13.2805    0.0000 C   0  0  0  0  0  0  0  0  0  0  0  0
    1.4253  -13.6832    0.0000 C   0  0  0  0  0  0  0  0  0  0  0  0
    2.1355  -13.2632    0.0000 C   0  0  0  0  0  0  0  0  0  0  0  0
    2.8533  -13.6658    0.0000 C   0  0  0  0  0  0  0  0  0  0  0  0
   16.4126  -13.3547    0.0000 C   0  0  2  0  0  0  0  0  0  0  0  0
   17.1250  -13.7743    0.0000 C   0  0  0  0  0  0  0  0  0  0  0  0
   16.4198  -12.5279    0.0000 O   0  0  0  0  0  0  0  0  0  0  0  0
    7.3407  -12.8878    0.0000 H   0  0  0  0  0  0  0  0  0  0  0  0
    6.9222  -12.8925    0.0000 H   0  0  0  0  0  0  0  0  0  0  0  0
  1  2  1  0  0  0  0
  2  3  1  0  0  0  0
  3  4  1  0  0  0  0
  4  5  1  0  0  0  0
  5  1  2  0  0  0  0
  2  6  2  0  0  0  0
  4  7  1  6  0  0  0
  8  9  1  0  0  0  0
  9 10  1  0  0  0  0
 10 11  1  0  0  0  0
 11 25  1  0  0  0  0
 12 26  1  0  0  0  0
 12 13  1  0  0  0  0
 13 14  1  0  0  0  0
 14 15  1  0  0  0  0
 15 16  1  0  0  0  0
 16 17  1  0  0  0  0
 17 18  1  0  0  0  0
 18 19  1  0  0  0  0
 19 20  1  0  0  0  0
 20 21  1  0  0  0  0
 21 22  1  0  0  0  0
 22 23  1  0  0  0  0
 11 24  1  6  0  0  0
 25 26  1  0  0  0  0
 25 27  1  0  0  0  0
 12 28  1  0  0  0  0
 27 28  1  0  0  0  0
 13 29  1  1  0  0  0
 19 30  2  0  0  0  0
 31 32  1  0  0  0  0
 32 33  1  0  0  0  0
 33 34  1  0  0  0  0
 34 35  1  0  0  0  0
 35 36  1  0  0  0  0
 36 37  1  0  0  0  0
 37 38  1  0  0  0  0
 38 39  1  0  0  0  0
 39  8  1  0  0  0  0
 23 40  1  0  0  0  0
 40 41  1  0  0  0  0
 40 42  1  1  0  0  0
 41  1  1  0  0  0  0
 25 43  1  6  0  0  0
 12 44  1  1  0  0  0
M  END
>  <Mol Weight>
594.8626

>  <Formula>
C35H62O7

>  <chembl_id>
CHEMBL503350

$$$$

  Mrv0541 06201412482D          

 45 49  0  0  0  0            999 V2000
   11.7248   -0.5862    0.0000 C   0  0  0  0  0  0  0  0  0  0  0  0
   12.4431   -0.1738    0.0000 N   0  0  0  0  0  0  0  0  0  0  0  0
   11.0063   -0.1738    0.0000 O   0  0  0  0  0  0  0  0  0  0  0  0
   11.7248   -1.4154    0.0000 O   0  0  0  0  0  0  0  0  0  0  0  0
   13.1570   -0.5862    0.0000 C   0  0  2  0  0  0  0  0  0  0  0  0
   13.8755   -0.1738    0.0000 C   0  0  1  0  0  0  0  0  0  0  0  0
   13.1570   -1.4154    0.0000 C   0  0  0  0  0  0  0  0  0  0  0  0
   12.5632   -1.9927    0.0000 C   0  0  0  0  0  0  0  0  0  0  0  0
   14.5894   -0.5862    0.0000 C   0  0  0  0  0  0  0  0  0  0  0  0
   15.3077   -0.1738    0.0000 N   0  0  0  0  0  0  0  0  0  0  0  0
   16.0262   -0.5862    0.0000 S   0  0  0  0  0  0  0  0  0  0  0  0
   15.3051    0.6598    0.0000 C   0  0  0  0  0  0  0  0  0  0  0  0
   16.0031    1.1026    0.0000 C   0  0  2  0  0  0  0  0  0  0  0  0
   16.7701    0.7986    0.0000 C   0  0  0  0  0  0  0  0  0  0  0  0
   17.2985    1.4360    0.0000 C   0  0  0  0  0  0  0  0  0  0  0  0
   16.8555    2.1341    0.0000 C   0  0  0  0  0  0  0  0  0  0  0  0
   16.0511    1.9299    0.0000 N   0  0  0  0  0  0  0  0  0  0  0  0
   17.1602    2.9034    0.0000 O   0  0  0  0  0  0  0  0  0  0  0  0
   16.7356   -0.9955    0.0000 C   0  0  0  0  0  0  0  0  0  0  0  0
   15.6102   -1.3051    0.0000 O   0  0  0  0  0  0  0  0  0  0  0  0
   16.4432    0.1269    0.0000 O   0  0  0  0  0  0  0  0  0  0  0  0
   16.7330   -1.8194    0.0000 C   0  0  0  0  0  0  0  0  0  0  0  0
   17.4456   -2.2286    0.0000 C   0  0  0  0  0  0  0  0  0  0  0  0
   18.1545   -1.8157    0.0000 C   0  0  0  0  0  0  0  0  0  0  0  0
   18.1526   -0.9910    0.0000 C   0  0  0  0  0  0  0  0  0  0  0  0
   17.4391   -0.5835    0.0000 C   0  0  0  0  0  0  0  0  0  0  0  0
   18.8748   -2.2292    0.0000 O   0  0  0  0  0  0  0  0  0  0  0  0
   18.8742   -3.0539    0.0000 C   0  0  0  0  0  0  0  0  0  0  0  0
   10.2924   -0.5862    0.0000 C   0  0  1  0  0  0  0  0  0  0  0  0
   11.7699   -1.7651    0.0000 C   0  0  0  0  0  0  0  0  0  0  0  0
   11.1763   -2.3415    0.0000 C   0  0  0  0  0  0  0  0  0  0  0  0
   11.3791   -3.1454    0.0000 C   0  0  0  0  0  0  0  0  0  0  0  0
   12.1808   -3.3697    0.0000 C   0  0  0  0  0  0  0  0  0  0  0  0
   12.7709   -2.7917    0.0000 C   0  0  0  0  0  0  0  0  0  0  0  0
    9.5412   -0.2516    0.0000 C   0  0  0  0  0  0  0  0  0  0  0  0
   10.2083   -1.4065    0.0000 C   0  0  0  0  0  0  0  0  0  0  0  0
    9.4021   -1.5783    0.0000 C   0  0  1  0  0  0  0  0  0  0  0  0
    8.9913   -0.8639    0.0000 C   0  0  2  0  0  0  0  0  0  0  0  0
    8.1848   -1.0337    0.0000 O   0  0  0  0  0  0  0  0  0  0  0  0
    8.0973   -1.8532    0.0000 C   0  0  0  0  0  0  0  0  0  0  0  0
    8.8495   -2.1896    0.0000 C   0  0  0  0  0  0  0  0  0  0  0  0
    8.4029   -0.2749    0.0000 H   0  0  0  0  0  0  0  0  0  0  0  0
    9.8094   -2.2863    0.0000 H   0  0  0  0  0  0  0  0  0  0  0  0
   10.2859    0.2428    0.0000 H   0  0  0  0  0  0  0  0  0  0  0  0
   13.8755    0.6509    0.0000 O   0  0  0  0  0  0  0  0  0  0  0  0
 15 16  1  0  0  0  0
 16 17  1  0  0  0  0
 13 17  1  0  0  0  0
 16 18  2  0  0  0  0
 11 19  1  0  0  0  0
 11 20  2  0  0  0  0
 11 21  2  0  0  0  0
 19 22  2  0  0  0  0
 22 23  1  0  0  0  0
 23 24  2  0  0  0  0
 24 25  1  0  0  0  0
 25 26  2  0  0  0  0
 26 19  1  0  0  0  0
 24 27  1  0  0  0  0
 27 28  1  0  0  0  0
  3 29  1  0  0  0  0
  8 30  2  0  0  0  0
  1  2  1  0  0  0  0
 30 31  1  0  0  0  0
  1  3  1  0  0  0  0
 31 32  2  0  0  0  0
  1  4  2  0  0  0  0
 32 33  1  0  0  0  0
  2  5  1  0  0  0  0
 33 34  2  0  0  0  0
 34  8  1  0  0  0  0
 29 35  1  0  0  0  0
  5  6  1  0  0  0  0
  5  7  1  6  0  0  0
 35 38  1  0  0  0  0
 37 36  1  0  0  0  0
 36 29  1  0  0  0  0
 37 38  1  0  0  0  0
  7  8  1  0  0  0  0
  6  9  1  0  0  0  0
  9 10  1  0  0  0  0
 10 11  1  0  0  0  0
 38 39  1  0  0  0  0
 39 40  1  0  0  0  0
 40 41  1  0  0  0  0
 41 37  1  0  0  0  0
 10 12  1  0  0  0  0
 38 42  1  1  0  0  0
 13 12  1  1  0  0  0
 37 43  1  1  0  0  0
 13 14  1  0  0  0  0
 29 44  1  1  0  0  0
 14 15  1  0  0  0  0
  6 45  1  6  0  0  0
M  END
>  <Mol Weight>
601.711

>  <Formula>
C30H39N3O8S

>  <chembl_id>
CHEMBL503430

$$$$

  Mrv0541 06201412482D          

 46 52  0  0  0  0            999 V2000
   -3.2742  -19.4575    0.0000 C   0  0  0  0  0  0  0  0  0  0  0  0
   -3.2754  -20.2827    0.0000 C   0  0  0  0  0  0  0  0  0  0  0  0
   -2.5645  -20.6945    0.0000 C   0  0  0  0  0  0  0  0  0  0  0  0
   -2.5665  -19.0458    0.0000 C   0  0  0  0  0  0  0  0  0  0  0  0
   -1.8503  -19.4534    0.0000 C   0  0  0  0  0  0  0  0  0  0  0  0
   -1.8465  -20.2848    0.0000 C   0  0  0  0  0  0  0  0  0  0  0  0
   -1.1288  -20.6950    0.0000 C   0  0  1  0  0  0  0  0  0  0  0  0
   -0.4100  -20.2785    0.0000 N   0  0  0  0  0  0  0  0  0  0  0  0
   -1.1361  -19.0323    0.0000 C   0  0  0  0  0  0  0  0  0  0  0  0
   -0.4145  -19.4472    0.0000 C   0  0  0  0  0  0  0  0  0  0  0  0
   -0.4254  -17.7847    0.0000 C   0  0  0  0  0  0  0  0  0  0  0  0
   -1.1404  -18.2045    0.0000 C   0  0  0  0  0  0  0  0  0  0  0  0
    0.3009  -18.1976    0.0000 C   0  0  0  0  0  0  0  0  0  0  0  0
    0.2993  -19.0303    0.0000 C   0  0  0  0  0  0  0  0  0  0  0  0
    1.0184  -19.4464    0.0000 C   0  0  0  0  0  0  0  0  0  0  0  0
    1.0177  -17.7826    0.0000 C   0  0  0  0  0  0  0  0  0  0  0  0
    1.7375  -18.1949    0.0000 C   0  0  0  0  0  0  0  0  0  0  0  0
    1.7381  -19.0325    0.0000 C   0  0  0  0  0  0  0  0  0  0  0  0
    2.5349  -19.2907    0.0000 O   0  0  0  0  0  0  0  0  0  0  0  0
    3.0268  -18.6127    0.0000 C   0  0  0  0  0  0  0  0  0  0  0  0
    2.5339  -17.9355    0.0000 O   0  0  0  0  0  0  0  0  0  0  0  0
   -2.5670  -21.5173    0.0000 O   0  0  0  0  0  0  0  0  0  0  0  0
   -3.2808  -21.9263    0.0000 C   0  0  0  0  0  0  0  0  0  0  0  0
   -1.1263  -21.5177    0.0000 C   0  0  0  0  0  0  0  0  0  0  0  0
   -0.4125  -21.9269    0.0000 C   0  0  0  0  0  0  0  0  0  0  0  0
   -0.4108  -22.7494    0.0000 C   0  0  0  0  0  0  0  0  0  0  0  0
    0.2988  -23.1584    0.0000 C   0  0  0  0  0  0  0  0  0  0  0  0
    0.2977  -21.5111    0.0000 C   0  0  0  0  0  0  0  0  0  0  0  0
    1.0120  -21.9247    0.0000 C   0  0  2  0  0  0  0  0  0  0  0  0
    1.0147  -22.7484    0.0000 C   0  0  2  0  0  0  0  0  0  0  0  0
    1.7254  -23.1556    0.0000 C   0  0  2  0  0  0  0  0  0  0  0  0
    2.4380  -22.7437    0.0000 C   0  0  0  0  0  0  0  0  0  0  0  0
    2.4353  -21.9201    0.0000 C   0  0  0  0  0  0  0  0  0  0  0  0
    1.7199  -21.5083    0.0000 C   0  0  1  0  0  0  0  0  0  0  0  0
    1.0056  -21.0983    0.0000 H   0  0  0  0  0  0  0  0  0  0  0  0
    1.0056  -23.5665    0.0000 H   0  0  0  0  0  0  0  0  0  0  0  0
    1.7161  -20.6855    0.0000 C   0  0  0  0  0  0  0  0  0  0  0  0
    2.4267  -20.2709    0.0000 C   0  0  0  0  0  0  0  0  0  0  0  0
    1.0016  -20.2776    0.0000 C   0  0  0  0  0  0  0  0  0  0  0  0
    1.3073  -23.8637    0.0000 C   0  0  0  0  0  0  0  0  0  0  0  0
    2.3036  -23.7357    0.0000 O   0  0  0  0  0  0  0  0  0  0  0  0
    3.0987  -23.5239    0.0000 C   0  0  0  0  0  0  0  0  0  0  0  0
    0.3040  -20.6872    0.0000 C   0  0  0  0  0  0  0  0  0  0  0  0
   -3.9886  -20.6931    0.0000 O   0  0  0  0  0  0  0  0  0  0  0  0
   -4.7005  -20.2808    0.0000 C   0  0  0  0  0  0  0  0  0  0  0  0
   -0.4205  -21.1029    0.0000 H   0  0  0  0  0  0  0  0  0  0  0  0
 21 17  1  0  0  0  0
  9 10  2  0  0  0  0
  3 22  1  0  0  0  0
 10 14  1  0  0  0  0
 22 23  1  0  0  0  0
  5  6  1  0  0  0  0
  7 24  1  0  0  0  0
 13 11  1  0  0  0  0
 24 25  1  0  0  0  0
 25 26  1  0  0  0  0
 11 12  2  0  0  0  0
 12  9  1  0  0  0  0
 25 28  2  0  0  0  0
 26 27  1  0  0  0  0
 27 30  1  0  0  0  0
 29 28  1  0  0  0  0
 29 30  1  0  0  0  0
  2  3  1  0  0  0  0
  3  6  2  0  0  0  0
 13 14  1  0  0  0  0
  1  2  2  0  0  0  0
 14 15  2  0  0  0  0
 15 18  1  0  0  0  0
 29 34  1  0  0  0  0
 30 31  1  0  0  0  0
 31 32  1  0  0  0  0
 32 33  1  0  0  0  0
 33 34  1  0  0  0  0
  5  9  1  0  0  0  0
 29 35  1  6  0  0  0
 17 16  1  0  0  0  0
 30 36  1  1  0  0  0
 16 13  2  0  0  0  0
 34 37  1  6  0  0  0
 17 18  2  0  0  0  0
 37 38  1  0  0  0  0
  6  7  1  0  0  0  0
 37 39  1  0  0  0  0
  7  8  1  0  0  0  0
 31 40  1  0  0  0  0
  8 10  1  0  0  0  0
 31 41  1  1  0  0  0
  5  4  2  0  0  0  0
 41 42  1  0  0  0  0
  4  1  1  0  0  0  0
  8 43  1  0  0  0  0
 18 19  1  0  0  0  0
  2 44  1  0  0  0  0
 19 20  1  0  0  0  0
 44 45  1  0  0  0  0
 20 21  1  0  0  0  0
  7 46  1  6  0  0  0
M  END
>  <Mol Weight>
583.7569

>  <Formula>
C37H45NO5

>  <chembl_id>
CHEMBL508159

$$$$

  Mrv0541 06201412482D          

 43 48  0  0  0  0            999 V2000
   15.6949    1.0357    0.0000 C   0  0  0  0  0  0  0  0  0  0  0  0
   15.6644    0.2110    0.0000 C   0  0  0  0  0  0  0  0  0  0  0  0
   16.3648   -0.2235    0.0000 C   0  0  0  0  0  0  0  0  0  0  0  0
   17.0928    0.1666    0.0000 C   0  0  0  0  0  0  0  0  0  0  0  0
   17.1160    0.9955    0.0000 C   0  0  0  0  0  0  0  0  0  0  0  0
   16.4149    1.4263    0.0000 N   0  0  0  0  0  0  0  0  0  0  0  0
   14.9362   -0.1767    0.0000 C   0  0  0  0  0  0  0  0  0  0  0  0
   14.9079   -1.0012    0.0000 N   0  0  0  0  0  0  0  0  0  0  0  0
   14.1753   -1.3845    0.0000 C   0  0  0  0  0  0  0  0  0  0  0  0
   14.1451   -2.2053    0.0000 C   0  0  0  0  0  0  0  0  0  0  0  0
   14.8430   -2.6459    0.0000 C   0  0  0  0  0  0  0  0  0  0  0  0
   15.5730   -2.2595    0.0000 C   0  0  0  0  0  0  0  0  0  0  0  0
   15.6051   -1.4325    0.0000 C   0  0  0  0  0  0  0  0  0  0  0  0
   14.9039    1.2435    0.0000 C   0  0  1  0  0  0  0  0  0  0  0  0
   13.5550    1.0957    0.0000 C   0  0  2  0  0  0  0  0  0  0  0  0
   14.2294    1.1361    0.0000 C   0  0  0  0  0  0  0  0  0  0  0  0
   13.3805    1.6371    0.0000 C   0  0  1  0  0  0  0  0  0  0  0  0
   12.8411    0.9981    0.0000 N   0  0  0  0  0  0  0  0  0  0  0  0
   14.3572    0.6010    0.0000 C   0  0  0  0  0  0  0  0  0  0  0  0
   13.2917    2.5256    0.0000 C   0  0  0  0  0  0  0  0  0  0  0  0
   13.6424    1.8762    0.0000 C   0  0  0  0  0  0  0  0  0  0  0  0
   11.4194   -0.6541    0.0000 C   0  0  0  0  0  0  0  0  0  0  0  0
   11.4182   -1.4815    0.0000 C   0  0  0  0  0  0  0  0  0  0  0  0
   12.1331   -1.8944    0.0000 C   0  0  0  0  0  0  0  0  0  0  0  0
   12.8495   -1.4810    0.0000 C   0  0  0  0  0  0  0  0  0  0  0  0
   12.8466   -0.6505    0.0000 C   0  0  0  0  0  0  0  0  0  0  0  0
   12.1313   -0.2414    0.0000 C   0  0  0  0  0  0  0  0  0  0  0  0
   12.1288    0.5836    0.0000 C   0  0  0  0  0  0  0  0  0  0  0  0
   11.4131    0.9940    0.0000 C   0  0  0  0  0  0  0  0  0  0  0  0
   11.4140    1.8183    0.0000 C   0  0  0  0  0  0  0  0  0  0  0  0
   10.6991    2.2285    0.0000 C   0  0  0  0  0  0  0  0  0  0  0  0
    9.9849    1.8139    0.0000 C   0  0  0  0  0  0  0  0  0  0  0  0
    9.9900    0.9846    0.0000 C   0  0  0  0  0  0  0  0  0  0  0  0
   10.7055    0.5780    0.0000 C   0  0  0  0  0  0  0  0  0  0  0  0
   12.1282    2.2313    0.0000 Cl  0  0  0  0  0  0  0  0  0  0  0  0
   13.5596   -0.2353    0.0000 Cl  0  0  0  0  0  0  0  0  0  0  0  0
   14.8958    2.0708    0.0000 C   0  0  0  0  0  0  0  0  0  0  0  0
   15.6062    2.4903    0.0000 N   0  0  0  0  0  0  0  0  0  0  0  0
   15.5982    3.3152    0.0000 C   0  0  0  0  0  0  0  0  0  0  0  0
   16.3086    3.7320    0.0000 C   0  0  0  0  0  0  0  0  0  0  0  0
   14.8797    3.7126    0.0000 O   0  0  0  0  0  0  0  0  0  0  0  0
   13.1375    0.3833    0.0000 H   0  0  0  0  0  0  0  0  0  0  0  0
   12.5792    1.8542    0.0000 H   0  0  0  0  0  0  0  0  0  0  0  0
 15 21  1  0  0  0  0
 20 21  1  0  0  0  0
  5  6  2  0  0  0  0
  6  1  1  0  0  0  0
 22 23  2  0  0  0  0
  8 13  1  0  0  0  0
 23 24  1  0  0  0  0
  9 10  1  0  0  0  0
 24 25  2  0  0  0  0
 10 11  1  0  0  0  0
 25 26  1  0  0  0  0
 11 12  1  0  0  0  0
 26 27  2  0  0  0  0
 27 22  1  0  0  0  0
 12 13  1  0  0  0  0
 27 28  1  0  0  0  0
 28 18  1  0  0  0  0
  1  2  2  0  0  0  0
 28 29  1  0  0  0  0
  2  7  1  0  0  0  0
 29 30  2  0  0  0  0
  3  4  2  0  0  0  0
 30 31  1  0  0  0  0
  7  8  1  0  0  0  0
 31 32  2  0  0  0  0
  8  9  1  0  0  0  0
 32 33  1  0  0  0  0
 33 34  2  0  0  0  0
 34 29  1  0  0  0  0
  4  5  1  0  0  0  0
 30 35  1  0  0  0  0
  2  3  1  0  0  0  0
 26 36  1  0  0  0  0
 14 16  1  0  0  0  0
 14 37  1  1  0  0  0
 16 17  1  0  0  0  0
 37 38  1  0  0  0  0
 14  1  1  0  0  0  0
 17 18  1  0  0  0  0
 38 39  1  0  0  0  0
 18 15  1  0  0  0  0
 39 40  1  0  0  0  0
 15 19  1  0  0  0  0
 39 41  2  0  0  0  0
 19 14  1  0  0  0  0
 15 42  1  6  0  0  0
 17 20  1  0  0  0  0
 17 43  1  6  0  0  0
M  END
>  <Mol Weight>
591.614

>  <Formula>
C34H40Cl2N4O

>  <chembl_id>
CHEMBL508160

$$$$

  Mrv0541 06201412482D          

 42 47  0  0  0  0            999 V2000
   15.0752  -10.7927    0.0000 C   0  0  0  0  0  0  0  0  0  0  0  0
   15.0732   -9.1393    0.0000 C   0  0  0  0  0  0  0  0  0  0  0  0
   15.7914   -9.5482    0.0000 C   0  0  0  0  0  0  0  0  0  0  0  0
   15.7906  -10.3772    0.0000 C   0  0  0  0  0  0  0  0  0  0  0  0
   16.5042  -10.7903    0.0000 C   0  0  0  0  0  0  0  0  0  0  0  0
   17.2232  -10.3788    0.0000 C   0  0  0  0  0  0  0  0  0  0  0  0
   17.2241   -9.5498    0.0000 C   0  0  1  0  0  0  0  0  0  0  0  0
   16.5059   -9.1321    0.0000 O   0  0  0  0  0  0  0  0  0  0  0  0
   14.3621  -10.3799    0.0000 C   0  0  0  0  0  0  0  0  0  0  0  0
   14.3664   -9.5567    0.0000 C   0  0  0  0  0  0  0  0  0  0  0  0
   13.6596   -9.1437    0.0000 O   0  0  0  0  0  0  0  0  0  0  0  0
   12.9440   -9.5494    0.0000 C   0  0  1  0  0  0  0  0  0  0  0  0
   12.9399  -10.3725    0.0000 C   0  0  0  0  0  0  0  0  0  0  0  0
   13.6512  -10.7900    0.0000 C   0  0  2  0  0  0  0  0  0  0  0  0
   17.9362   -9.1377    0.0000 C   0  0  0  0  0  0  0  0  0  0  0  0
   18.6502   -9.5534    0.0000 C   0  0  0  0  0  0  0  0  0  0  0  0
   19.3651   -9.1431    0.0000 C   0  0  0  0  0  0  0  0  0  0  0  0
   19.3672   -8.3172    0.0000 C   0  0  0  0  0  0  0  0  0  0  0  0
   18.6485   -7.9033    0.0000 C   0  0  0  0  0  0  0  0  0  0  0  0
   17.9367   -8.3159    0.0000 C   0  0  0  0  0  0  0  0  0  0  0  0
   16.5021  -11.6154    0.0000 O   0  0  0  0  0  0  0  0  0  0  0  0
   15.0757  -11.6178    0.0000 O   0  0  0  0  0  0  0  0  0  0  0  0
   12.2245   -9.9556    0.0000 O   0  0  0  0  0  0  0  0  0  0  0  0
   12.9349  -11.1978    0.0000 C   0  0  0  0  0  0  0  0  0  0  0  0
   12.2164  -10.7806    0.0000 C   0  0  1  0  0  0  0  0  0  0  0  0
   11.4995  -11.1888    0.0000 C   0  0  0  0  0  0  0  0  0  0  0  0
   12.9523   -8.7244    0.0000 C   0  0  0  0  0  0  0  0  0  0  0  0
   12.2419   -8.3047    0.0000 C   0  0  0  0  0  0  0  0  0  0  0  0
   12.2501   -7.4798    0.0000 C   0  0  0  0  0  0  0  0  0  0  0  0
   12.9692   -7.0801    0.0000 C   0  0  0  0  0  0  0  0  0  0  0  0
   12.9778   -6.2560    0.0000 C   0  0  0  0  0  0  0  0  0  0  0  0
   12.2668   -5.8355    0.0000 C   0  0  0  0  0  0  0  0  0  0  0  0
   11.5458   -6.2453    0.0000 C   0  0  0  0  0  0  0  0  0  0  0  0
   11.5408   -7.0681    0.0000 C   0  0  0  0  0  0  0  0  0  0  0  0
   10.7875  -10.7720    0.0000 C   0  0  0  0  0  0  0  0  0  0  0  0
   10.0704  -11.1801    0.0000 C   0  0  0  0  0  0  0  0  0  0  0  0
    9.3585  -10.7633    0.0000 C   0  0  0  0  0  0  0  0  0  0  0  0
    8.6415  -11.1715    0.0000 O   0  0  0  0  0  0  0  0  0  0  0  0
    9.3635   -9.9382    0.0000 O   0  0  0  0  0  0  0  0  0  0  0  0
    7.9295  -10.7546    0.0000 C   0  0  0  0  0  0  0  0  0  0  0  0
    7.2125  -11.1628    0.0000 C   0  0  0  0  0  0  0  0  0  0  0  0
   14.0580  -11.5003    0.0000 H   0  0  0  0  0  0  0  0  0  0  0  0
 20 15  1  0  0  0  0
  7 15  1  1  0  0  0
  9  1  1  0  0  0  0
  5 21  2  0  0  0  0
  1  4  2  0  0  0  0
  1 22  1  0  0  0  0
 12 23  1  0  0  0  0
  3  2  2  0  0  0  0
 14 24  1  0  0  0  0
 24 25  1  0  0  0  0
  2 10  1  0  0  0  0
 23 25  1  0  0  0  0
  3  4  1  0  0  0  0
 25 26  1  1  0  0  0
  9 14  1  0  0  0  0
 12 27  1  6  0  0  0
 10 11  1  0  0  0  0
 27 28  2  0  0  0  0
 11 12  1  0  0  0  0
 28 29  1  0  0  0  0
 12 13  1  0  0  0  0
 29 30  2  0  0  0  0
 13 14  1  0  0  0  0
 30 31  1  0  0  0  0
  3  8  1  0  0  0  0
 31 32  2  0  0  0  0
  4  5  1  0  0  0  0
 32 33  1  0  0  0  0
 15 16  2  0  0  0  0
 33 34  2  0  0  0  0
 34 29  1  0  0  0  0
  5  6  1  0  0  0  0
 26 35  1  0  0  0  0
 16 17  1  0  0  0  0
 35 36  1  0  0  0  0
  6  7  1  0  0  0  0
 36 37  1  0  0  0  0
 17 18  2  0  0  0  0
 37 38  1  0  0  0  0
  7  8  1  0  0  0  0
 37 39  2  0  0  0  0
 18 19  1  0  0  0  0
 38 40  1  0  0  0  0
  9 10  2  0  0  0  0
 40 41  1  0  0  0  0
 19 20  2  0  0  0  0
 14 42  1  6  0  0  0
M  END
>  <Mol Weight>
554.6296

>  <Formula>
C34H34O7

>  <chembl_id>
CHEMBL504055

$$$$

  Mrv0541 06201412482D          

 46 52  0  0  0  0            999 V2000
   10.2997  -16.2081    0.0000 C   0  0  0  0  0  0  0  0  0  0  0  0
   10.2979  -14.5571    0.0000 C   0  0  0  0  0  0  0  0  0  0  0  0
   11.0125  -14.9657    0.0000 C   0  0  0  0  0  0  0  0  0  0  0  0
   11.0159  -15.7978    0.0000 C   0  0  0  0  0  0  0  0  0  0  0  0
   11.7342  -16.2086    0.0000 C   0  0  2  0  0  0  0  0  0  0  0  0
   11.7274  -14.5444    0.0000 C   0  0  2  0  0  0  0  0  0  0  0  0
   12.4503  -14.9598    0.0000 C   0  0  2  0  0  0  0  0  0  0  0  0
   12.4520  -15.7941    0.0000 C   0  0  2  0  0  0  0  0  0  0  0  0
   13.2461  -16.0504    0.0000 C   0  0  0  0  0  0  0  0  0  0  0  0
   13.7351  -15.3743    0.0000 O   0  0  0  0  0  0  0  0  0  0  0  0
   13.2433  -14.7004    0.0000 C   0  0  0  0  0  0  0  0  0  0  0  0
   13.5023  -16.8335    0.0000 O   0  0  0  0  0  0  0  0  0  0  0  0
   11.7379  -17.0296    0.0000 C   0  0  0  0  0  0  0  0  0  0  0  0
   11.0236  -17.4425    0.0000 C   0  0  0  0  0  0  0  0  0  0  0  0
   11.0249  -18.2657    0.0000 C   0  0  0  0  0  0  0  0  0  0  0  0
   11.7399  -18.6771    0.0000 C   0  0  0  0  0  0  0  0  0  0  0  0
   12.4550  -18.2592    0.0000 C   0  0  0  0  0  0  0  0  0  0  0  0
   12.4501  -17.4373    0.0000 C   0  0  0  0  0  0  0  0  0  0  0  0
   11.7228  -13.7205    0.0000 N   0  0  0  0  0  0  0  0  0  0  0  0
   12.3875  -13.2326    0.0000 C   0  0  0  0  0  0  0  0  0  0  0  0
   12.1285  -12.4503    0.0000 C   0  0  0  0  0  0  0  0  0  0  0  0
   11.3045  -12.4548    0.0000 N   0  0  0  0  0  0  0  0  0  0  0  0
   11.0543  -13.2399    0.0000 N   0  0  0  0  0  0  0  0  0  0  0  0
   12.5274  -11.7289    0.0000 C   0  0  0  0  0  0  0  0  0  0  0  0
   13.3514  -11.7135    0.0000 N   0  0  0  0  0  0  0  0  0  0  0  0
   13.7499  -10.9923    0.0000 C   0  0  0  0  0  0  0  0  0  0  0  0
   14.5764  -10.9813    0.0000 C   0  0  0  0  0  0  0  0  0  0  0  0
   14.9749  -10.2610    0.0000 C   0  0  0  0  0  0  0  0  0  0  0  0
   14.5495   -9.5541    0.0000 C   0  0  0  0  0  0  0  0  0  0  0  0
   13.7214   -9.5723    0.0000 C   0  0  0  0  0  0  0  0  0  0  0  0
   13.3267  -10.2932    0.0000 C   0  0  0  0  0  0  0  0  0  0  0  0
   12.4433  -14.1329    0.0000 H   0  0  0  0  0  0  0  0  0  0  0  0
   12.4474  -16.6174    0.0000 H   0  0  0  0  0  0  0  0  0  0  0  0
   13.1709  -18.6672    0.0000 O   0  0  0  0  0  0  0  0  0  0  0  0
   10.3119  -18.6789    0.0000 O   0  0  0  0  0  0  0  0  0  0  0  0
    9.5977  -18.2680    0.0000 C   0  0  0  0  0  0  0  0  0  0  0  0
   13.8822  -18.2512    0.0000 C   0  0  0  0  0  0  0  0  0  0  0  0
   11.7427  -19.5011    0.0000 O   0  0  0  0  0  0  0  0  0  0  0  0
    9.5858  -15.7957    0.0000 C   0  0  0  0  0  0  0  0  0  0  0  0
    9.5824  -14.9678    0.0000 C   0  0  0  0  0  0  0  0  0  0  0  0
    8.7941  -14.7152    0.0000 O   0  0  0  0  0  0  0  0  0  0  0  0
    8.3101  -15.3870    0.0000 C   0  0  0  0  0  0  0  0  0  0  0  0
    8.7995  -16.0547    0.0000 O   0  0  0  0  0  0  0  0  0  0  0  0
   13.2920   -8.8640    0.0000 N   0  3  0  0  0  0  0  0  0  0  0  0
   12.4682   -8.8823    0.0000 O   0  0  0  0  0  0  0  0  0  0  0  0
   13.6880   -8.1414    0.0000 O   0  5  0  0  0  0  0  0  0  0  0  0
  8  9  1  0  0  0  0
 20 21  2  0  0  0  0
 21 22  1  0  0  0  0
 22 23  2  0  0  0  0
 23 19  1  0  0  0  0
  9 10  1  0  0  0  0
 21 24  1  0  0  0  0
 10 11  1  0  0  0  0
 24 25  1  0  0  0  0
  7 11  1  0  0  0  0
 25 26  1  0  0  0  0
  3  2  2  0  0  0  0
 26 27  2  0  0  0  0
  9 12  2  0  0  0  0
 27 28  1  0  0  0  0
  3  6  1  0  0  0  0
 28 29  2  0  0  0  0
  4  5  1  0  0  0  0
 29 30  1  0  0  0  0
 13 14  2  0  0  0  0
 30 31  2  0  0  0  0
 31 26  1  0  0  0  0
  5  8  1  0  0  0  0
  7 32  1  6  0  0  0
 14 15  1  0  0  0  0
  8 33  1  1  0  0  0
  7  6  1  0  0  0  0
 17 34  1  0  0  0  0
 15 16  2  0  0  0  0
 15 35  1  0  0  0  0
  7  8  1  0  0  0  0
 35 36  1  0  0  0  0
 16 17  1  0  0  0  0
 34 37  1  0  0  0  0
  2 40  1  0  0  0  0
 16 38  1  0  0  0  0
 39 40  2  0  0  0  0
 17 18  2  0  0  0  0
 18 13  1  0  0  0  0
  5 13  1  6  0  0  0
  3  4  1  0  0  0  0
  6 19  1  1  0  0  0
 40 41  1  0  0  0  0
 41 42  1  0  0  0  0
 42 43  1  0  0  0  0
 43 39  1  0  0  0  0
 19 20  1  0  0  0  0
 39  1  1  0  0  0  0
  1  4  2  0  0  0  0
 44 45  2  0  0  0  0
 44 46  1  0  0  0  0
 30 44  1  0  0  0  0
M  CHG  2  44   1  46  -1
M  END
>  <Mol Weight>
601.5635

>  <Formula>
C30H27N5O9

>  <chembl_id>
CHEMBL500508

$$$$

  Mrv0541 06201412482D          

 42 46  0  0  0  0            999 V2000
    3.9610   -2.5086    0.0000 C   0  0  1  0  0  0  0  0  0  0  0  0
    3.9610   -1.6836    0.0000 C   0  0  0  0  0  0  0  0  0  0  0  0
    4.6789   -1.2711    0.0000 C   0  0  0  0  0  0  0  0  0  0  0  0
    4.6789   -2.9211    0.0000 C   0  0  0  0  0  0  0  0  0  0  0  0
    5.3928   -2.5086    0.0000 C   0  0  0  0  0  0  0  0  0  0  0  0
    6.1044   -2.9211    0.0000 C   0  0  0  0  0  0  0  0  0  0  0  0
    6.8224   -2.5086    0.0000 C   0  0  0  0  0  0  0  0  0  0  0  0
    6.8224   -1.6836    0.0000 C   0  0  1  0  0  0  0  0  0  0  0  0
    7.5341   -1.2711    0.0000 C   0  0  2  0  0  0  0  0  0  0  0  0
    8.3188   -1.5273    0.0000 C   0  0  0  0  0  0  0  0  0  0  0  0
    8.8053   -0.8586    0.0000 C   0  0  0  0  0  0  0  0  0  0  0  0
    8.3188   -0.1920    0.0000 C   0  0  2  0  0  0  0  0  0  0  0  0
    8.5750    0.5990    0.0000 C   0  0  1  0  0  0  0  0  0  0  0  0
    9.3710    0.8062    0.0000 C   0  0  0  0  0  0  0  0  0  0  0  0
    9.5846    1.6023    0.0000 C   0  0  0  0  0  0  0  0  0  0  0  0
   10.3807    1.8200    0.0000 C   0  0  0  0  0  0  0  0  0  0  0  0
   10.5942    2.6182    0.0000 C   0  0  0  0  0  0  0  0  0  0  0  0
   11.3924    2.8254    0.0000 C   0  0  0  0  0  0  0  0  0  0  0  0
   10.0095    3.2029    0.0000 C   0  0  0  0  0  0  0  0  0  0  0  0
    7.9903    1.1773    0.0000 C   0  0  0  0  0  0  0  0  0  0  0  0
    7.5341   -0.4461    0.0000 C   0  0  2  0  0  0  0  0  0  0  0  0
    7.5341    0.3789    0.0000 C   0  0  0  0  0  0  0  0  0  0  0  0
    6.8224   -0.0336    0.0000 C   0  0  0  0  0  0  0  0  0  0  0  0
    6.1044   -0.4461    0.0000 C   0  0  0  0  0  0  0  0  0  0  0  0
    6.1044   -1.2711    0.0000 C   0  0  2  0  0  0  0  0  0  0  0  0
    5.3928   -1.6836    0.0000 C   0  0  1  0  0  0  0  0  0  0  0  0
    5.3928   -0.8586    0.0000 C   0  0  0  0  0  0  0  0  0  0  0  0
    6.1044   -2.0961    0.0000 H   0  0  0  0  0  0  0  0  0  0  0  0
    6.8224   -0.8586    0.0000 H   0  0  0  0  0  0  0  0  0  0  0  0
    7.5341   -2.0961    0.0000 H   0  0  0  0  0  0  0  0  0  0  0  0
    9.1399   -0.1899    0.0000 H   0  0  0  0  0  0  0  0  0  0  0  0
    3.2469   -2.9219    0.0000 Cl  0  0  0  0  0  0  0  0  0  0  0  0
    7.5364   -2.9219    0.0000 N   0  0  0  0  0  0  0  0  0  0  0  0
    7.5356   -3.7469    0.0000 N   0  0  0  0  0  0  0  0  0  0  0  0
    8.2496   -4.1601    0.0000 C   0  0  0  0  0  0  0  0  0  0  0  0
    8.2487   -4.9851    0.0000 N   0  0  0  0  0  0  0  0  0  0  0  0
    8.9645   -3.7484    0.0000 S   0  0  0  0  0  0  0  0  0  0  0  0
    8.9627   -5.3984    0.0000 C   0  0  0  0  0  0  0  0  0  0  0  0
    9.0509   -6.2183    0.0000 C   0  0  0  0  0  0  0  0  0  0  0  0
    9.8577   -6.3907    0.0000 C   0  0  0  0  0  0  0  0  0  0  0  0
   10.2709   -5.6766    0.0000 C   0  0  0  0  0  0  0  0  0  0  0  0
    9.7195   -5.0631    0.0000 C   0  0  0  0  0  0  0  0  0  0  0  0
 12 11  1  0  0  0  0
 12 13  1  0  0  0  0
 13 14  1  0  0  0  0
 14 15  1  0  0  0  0
 15 16  1  0  0  0  0
 16 17  1  0  0  0  0
 17 18  1  0  0  0  0
 17 19  1  0  0  0  0
 13 20  1  6  0  0  0
 12 21  1  0  0  0  0
  9 21  1  0  0  0  0
 21 22  1  1  0  0  0
 21 23  1  0  0  0  0
 23 24  1  0  0  0  0
 24 25  1  0  0  0  0
  8 25  1  0  0  0  0
 25 26  1  0  0  0  0
  3 26  1  0  0  0  0
  5 26  1  0  0  0  0
 26 27  1  1  0  0  0
 25 28  1  6  0  0  0
  8 29  1  1  0  0  0
  9 30  1  6  0  0  0
 12 31  1  6  0  0  0
  1 32  1  1  0  0  0
  1  2  1  0  0  0  0
  7 33  2  0  0  0  0
  2  3  1  0  0  0  0
 33 34  1  0  0  0  0
  1  4  1  0  0  0  0
 34 35  1  0  0  0  0
  4  5  1  0  0  0  0
 35 36  1  0  0  0  0
  5  6  2  0  0  0  0
 35 37  2  0  0  0  0
  6  7  1  0  0  0  0
 36 38  1  0  0  0  0
 38 39  1  0  0  0  0
  7  8  1  0  0  0  0
  8  9  1  0  0  0  0
  9 10  1  0  0  0  0
 10 11  1  0  0  0  0
 39 40  1  0  0  0  0
 40 41  1  0  0  0  0
 41 42  1  0  0  0  0
 42 38  1  0  0  0  0
M  END
>  <Mol Weight>
560.32

>  <Formula>
C33H54ClN3S

>  <chembl_id>
CHEMBL503467

$$$$

  Mrv0541 06201412482D          

 46 51  0  0  0  0            999 V2000
   14.8437  -18.2570    0.0000 C   0  0  0  0  0  0  0  0  0  0  0  0
    9.1251  -19.9070    0.0000 C   0  0  1  0  0  0  0  0  0  0  0  0
    8.4092  -20.3195    0.0000 O   0  0  0  0  0  0  0  0  0  0  0  0
    9.1251  -19.0820    0.0000 C   0  0  0  0  0  0  0  0  0  0  0  0
    9.8409  -18.6695    0.0000 C   0  0  0  0  0  0  0  0  0  0  0  0
    9.8409  -20.3195    0.0000 C   0  0  0  0  0  0  0  0  0  0  0  0
   10.5568  -19.9070    0.0000 C   0  0  2  0  0  0  0  0  0  0  0  0
   11.2727  -20.3195    0.0000 C   0  0  0  0  0  0  0  0  0  0  0  0
   11.9844  -19.9070    0.0000 C   0  0  0  0  0  0  0  0  0  0  0  0
   11.9844  -19.0820    0.0000 C   0  0  1  0  0  0  0  0  0  0  0  0
   11.9844  -18.2570    0.0000 C   0  0  0  0  0  0  0  0  0  0  0  0
   12.6961  -18.6695    0.0000 C   0  0  2  0  0  0  0  0  0  0  0  0
   12.6961  -19.4945    0.0000 C   0  0  0  0  0  0  0  0  0  0  0  0
   13.4161  -19.0820    0.0000 C   0  0  0  0  0  0  0  0  0  0  0  0
   14.1278  -18.6695    0.0000 C   0  0  0  0  0  0  0  0  0  0  0  0
   14.1278  -17.8403    0.0000 C   0  0  2  0  0  0  0  0  0  0  0  0
   14.8437  -17.4278    0.0000 C   0  0  0  0  0  0  0  0  0  0  0  0
   14.8437  -16.6028    0.0000 C   0  0  0  0  0  0  0  0  0  0  0  0
   14.1278  -16.1903    0.0000 C   0  0  0  0  0  0  0  0  0  0  0  0
   13.4161  -16.6028    0.0000 C   0  0  0  0  0  0  0  0  0  0  0  0
   13.4161  -17.4278    0.0000 C   0  0  1  0  0  0  0  0  0  0  0  0
   12.6961  -17.0153    0.0000 H   0  0  0  0  0  0  0  0  0  0  0  0
   12.6961  -17.8403    0.0000 C   0  0  0  0  0  0  0  0  0  0  0  0
   11.9844  -17.4278    0.0000 C   0  0  0  0  0  0  0  0  0  0  0  0
   11.2727  -17.8403    0.0000 C   0  0  0  0  0  0  0  0  0  0  0  0
   11.2727  -18.6695    0.0000 C   0  0  2  0  0  0  0  0  0  0  0  0
   10.5568  -19.0820    0.0000 C   0  0  1  0  0  0  0  0  0  0  0  0
   10.5568  -18.2570    0.0000 C   0  0  0  0  0  0  0  0  0  0  0  0
   14.8437  -19.0820    0.0000 O   0  0  0  0  0  0  0  0  0  0  0  0
   15.5595  -17.8403    0.0000 O   0  0  0  0  0  0  0  0  0  0  0  0
   11.2727  -19.4945    0.0000 H   0  0  0  0  0  0  0  0  0  0  0  0
   10.5500  -20.7458    0.0000 H   0  0  0  0  0  0  0  0  0  0  0  0
    9.4125  -21.0458    0.0000 C   0  0  0  0  0  0  0  0  0  0  0  0
   10.2542  -21.0458    0.0000 C   0  0  0  0  0  0  0  0  0  0  0  0
   14.5417  -15.4542    0.0000 C   0  0  0  0  0  0  0  0  0  0  0  0
   13.7000  -15.4542    0.0000 C   0  0  0  0  0  0  0  0  0  0  0  0
    7.6951  -19.9064    0.0000 C   0  0  0  0  0  0  0  0  0  0  0  0
    6.9803  -20.3183    0.0000 C   0  0  0  0  0  0  0  0  0  0  0  0
    6.2686  -19.9021    0.0000 C   0  0  0  0  0  0  0  0  0  0  0  0
    5.5542  -20.3133    0.0000 C   0  0  0  0  0  0  0  0  0  0  0  0
    5.5531  -21.1392    0.0000 C   0  0  0  0  0  0  0  0  0  0  0  0
    6.2722  -21.5521    0.0000 C   0  0  0  0  0  0  0  0  0  0  0  0
    6.9836  -21.1386    0.0000 C   0  0  0  0  0  0  0  0  0  0  0  0
    6.2696  -19.0742    0.0000 C   0  0  0  0  0  0  0  0  0  0  0  0
    6.9855  -18.6641    0.0000 O   0  0  0  0  0  0  0  0  0  0  0  0
    5.5566  -18.6592    0.0000 O   0  0  0  0  0  0  0  0  0  0  0  0
 16  1  1  1  0  0  0
 16 17  1  0  0  0  0
 17 18  1  0  0  0  0
 18 19  1  0  0  0  0
 19 20  1  0  0  0  0
 20 21  1  0  0  0  0
 21 22  1  1  0  0  0
 16 21  1  0  0  0  0
 21 23  1  0  0  0  0
 12 23  1  0  0  0  0
 23 24  2  0  0  0  0
 24 25  1  0  0  0  0
 25 26  1  0  0  0  0
 10 26  1  0  0  0  0
 26 27  1  0  0  0  0
  5 27  1  0  0  0  0
  7 27  1  0  0  0  0
 27 28  1  1  0  0  0
  1 29  2  0  0  0  0
  1 30  1  0  0  0  0
 26 31  1  6  0  0  0
  7 32  1  6  0  0  0
  2  3  1  1  0  0  0
  6 33  1  0  0  0  0
  2  4  1  0  0  0  0
  6 34  1  0  0  0  0
  4  5  1  0  0  0  0
 19 35  1  0  0  0  0
  2  6  1  0  0  0  0
 19 36  1  0  0  0  0
  6  7  1  0  0  0  0
  3 37  1  0  0  0  0
  7  8  1  0  0  0  0
 37 38  1  0  0  0  0
  8  9  1  0  0  0  0
 38 39  2  0  0  0  0
  9 10  1  0  0  0  0
 39 40  1  0  0  0  0
 10 11  1  1  0  0  0
 40 41  2  0  0  0  0
 10 12  1  0  0  0  0
 41 42  1  0  0  0  0
 12 13  1  6  0  0  0
 42 43  2  0  0  0  0
 43 38  1  0  0  0  0
 12 14  1  0  0  0  0
 14 15  1  0  0  0  0
 15 16  1  0  0  0  0
 44 45  1  0  0  0  0
 44 46  2  0  0  0  0
 39 44  1  0  0  0  0
M  END
>  <Mol Weight>
590.8324

>  <Formula>
C38H54O5

>  <chembl_id>
CHEMBL504397

$$$$

  Mrv0541 06201412482D          

 45 51  0  0  0  0            999 V2000
   -4.8098    2.3479    0.0000 C   0  0  0  0  0  0  0  0  0  0  0  0
   -4.8110    1.5198    0.0000 C   0  0  0  0  0  0  0  0  0  0  0  0
   -4.0955    1.1066    0.0000 C   0  0  0  0  0  0  0  0  0  0  0  0
   -3.3784    1.5203    0.0000 C   0  0  0  0  0  0  0  0  0  0  0  0
   -3.3813    2.3515    0.0000 C   0  0  0  0  0  0  0  0  0  0  0  0
   -4.0973    2.7610    0.0000 C   0  0  0  0  0  0  0  0  0  0  0  0
   -4.0957    0.2808    0.0000 F   0  0  0  0  0  0  0  0  0  0  0  0
   -2.6677    2.7671    0.0000 F   0  0  0  0  0  0  0  0  0  0  0  0
   -2.6627    1.1086    0.0000 C   0  0  0  0  0  0  0  0  0  0  0  0
   -2.6614    0.2828    0.0000 O   0  0  0  0  0  0  0  0  0  0  0  0
   -1.9483    1.5225    0.0000 N   0  0  0  0  0  0  0  0  0  0  0  0
   -1.2325    1.1108    0.0000 C   0  0  0  0  0  0  0  0  0  0  0  0
   -1.2359    0.2866    0.0000 C   0  0  0  0  0  0  0  0  0  0  0  0
   -0.5210   -0.1250    0.0000 C   0  0  0  0  0  0  0  0  0  0  0  0
    0.1945    0.2891    0.0000 C   0  0  0  0  0  0  0  0  0  0  0  0
    0.1905    1.1191    0.0000 C   0  0  0  0  0  0  0  0  0  0  0  0
   -0.5250    1.5269    0.0000 C   0  0  0  0  0  0  0  0  0  0  0  0
    0.9035    1.5355    0.0000 C   0  0  0  0  0  0  0  0  0  0  0  0
    1.6563    1.2038    0.0000 C   0  0  0  0  0  0  0  0  0  0  0  0
    0.9825    2.3574    0.0000 N   0  0  0  0  0  0  0  0  0  0  0  0
    1.7893    2.5333    0.0000 C   0  0  0  0  0  0  0  0  0  0  0  0
    2.2018    1.8226    0.0000 N   0  0  0  0  0  0  0  0  0  0  0  0
    3.0218    1.8255    0.0000 C   0  0  0  0  0  0  0  0  0  0  0  0
    3.4302    2.5385    0.0000 C   0  0  0  0  0  0  0  0  0  0  0  0
    3.0125    3.2499    0.0000 C   0  0  0  0  0  0  0  0  0  0  0  0
    2.1939    3.2435    0.0000 C   0  0  0  0  0  0  0  0  0  0  0  0
    1.8358    0.3996    0.0000 C   0  0  0  0  0  0  0  0  0  0  0  0
    1.2245   -0.1569    0.0000 C   0  0  0  0  0  0  0  0  0  0  0  0
    1.4014   -0.9627    0.0000 C   0  0  0  0  0  0  0  0  0  0  0  0
    2.1892   -1.2130    0.0000 N   0  0  0  0  0  0  0  0  0  0  0  0
    2.8002   -0.6512    0.0000 C   0  0  0  0  0  0  0  0  0  0  0  0
    2.6201    0.1525    0.0000 N   0  0  0  0  0  0  0  0  0  0  0  0
    3.5882   -0.8979    0.0000 N   0  0  0  0  0  0  0  0  0  0  0  0
    3.7686   -1.7037    0.0000 C   0  0  0  0  0  0  0  0  0  0  0  0
    3.1607   -2.2610    0.0000 C   0  0  0  0  0  0  0  0  0  0  0  0
    3.3406   -3.0661    0.0000 C   0  0  0  0  0  0  0  0  0  0  0  0
    4.1293   -3.3135    0.0000 C   0  0  0  0  0  0  0  0  0  0  0  0
    4.7383   -2.7496    0.0000 C   0  0  0  0  0  0  0  0  0  0  0  0
    4.5554   -1.9466    0.0000 C   0  0  0  0  0  0  0  0  0  0  0  0
    2.7327   -3.6248    0.0000 C   0  0  0  0  0  0  0  0  0  0  0  0
    1.9448   -3.3777    0.0000 N   0  0  0  0  0  0  0  0  0  0  0  0
    1.6780   -2.5980    0.0000 C   0  0  0  0  0  0  0  0  0  0  0  0
    0.8522   -2.6065    0.0000 C   0  0  0  0  0  0  0  0  0  0  0  0
    0.6051   -3.3943    0.0000 C   0  0  0  0  0  0  0  0  0  0  0  0
    1.2781   -3.8728    0.0000 C   0  0  0  0  0  0  0  0  0  0  0  0
  2  3  1  0  0  0  0
 21 22  1  0  0  0  0
  9 11  1  0  0  0  0
 22 23  1  0  0  0  0
  5  6  2  0  0  0  0
 23 24  2  0  0  0  0
 11 12  1  0  0  0  0
 24 25  1  0  0  0  0
  6  1  1  0  0  0  0
 25 26  2  0  0  0  0
 26 21  1  0  0  0  0
 12 13  2  0  0  0  0
  1  2  2  0  0  0  0
 27 28  2  0  0  0  0
 13 14  1  0  0  0  0
 28 29  1  0  0  0  0
  3  7  1  0  0  0  0
 29 30  2  0  0  0  0
 14 15  2  0  0  0  0
 30 31  1  0  0  0  0
  3  4  2  0  0  0  0
 31 32  2  0  0  0  0
 32 27  1  0  0  0  0
 19 27  1  0  0  0  0
 15 16  1  0  0  0  0
 31 33  1  0  0  0  0
  5  8  1  0  0  0  0
 33 34  1  0  0  0  0
 16 17  2  0  0  0  0
 34 35  2  0  0  0  0
 17 12  1  0  0  0  0
 35 36  1  0  0  0  0
 36 37  2  0  0  0  0
 16 18  1  0  0  0  0
 37 38  1  0  0  0  0
 18 19  2  0  0  0  0
 38 39  2  0  0  0  0
 39 34  1  0  0  0  0
  4  9  1  0  0  0  0
 36 40  1  0  0  0  0
  4  5  1  0  0  0  0
 40 41  1  0  0  0  0
 41 42  1  0  0  0  0
 19 22  1  0  0  0  0
 21 20  2  0  0  0  0
 20 18  1  0  0  0  0
  9 10  2  0  0  0  0
 42 43  1  0  0  0  0
 43 44  1  0  0  0  0
 44 45  1  0  0  0  0
 45 41  1  0  0  0  0
M  END
>  <Mol Weight>
601.6479

>  <Formula>
C35H29F2N7O

>  <chembl_id>
CHEMBL504398

$$$$

  Mrv0541 06201412482D          

 42 44  0  0  0  0            999 V2000
    0.7144   -0.4125    0.0000 C   0  0  0  0  0  0  0  0  0  0  0  0
    0.0000   -0.8249    0.0000 C   0  0  0  0  0  0  0  0  0  0  0  0
   -0.7144   -0.4125    0.0000 N   0  0  0  0  0  0  0  0  0  0  0  0
   -0.7144    0.4125    0.0000 C   0  0  0  0  0  0  0  0  0  0  0  0
    0.0000    0.8249    0.0000 C   0  0  0  0  0  0  0  0  0  0  0  0
    0.7144    0.4125    0.0000 C   0  0  0  0  0  0  0  0  0  0  0  0
    0.0017   -1.6503    0.0000 C   0  0  0  0  0  0  0  0  0  0  0  0
   -0.5693   -1.9813    0.0000 O   0  0  0  0  0  0  0  0  0  0  0  0
    0.7171   -2.0620    0.0000 N   0  0  0  0  0  0  0  0  0  0  0  0
    0.7188   -2.8874    0.0000 C   0  0  2  0  0  0  0  0  0  0  0  0
    1.4342   -3.2991    0.0000 C   0  0  0  0  0  0  0  0  0  0  0  0
    2.0052   -2.9682    0.0000 O   0  0  0  0  0  0  0  0  0  0  0  0
    1.4359   -4.1245    0.0000 N   0  0  0  0  0  0  0  0  0  0  0  0
    2.1504   -4.5370    0.0000 C   0  0  0  0  0  0  0  0  0  0  0  0
    2.1504   -5.3620    0.0000 C   0  0  0  0  0  0  0  0  0  0  0  0
    1.4360   -5.7745    0.0000 N   0  0  0  0  0  0  0  0  0  0  0  0
    0.7215   -5.3620    0.0000 C   0  0  0  0  0  0  0  0  0  0  0  0
    0.7215   -4.5370    0.0000 C   0  0  0  0  0  0  0  0  0  0  0  0
    0.0056   -3.3029    0.0000 C   0  0  0  0  0  0  0  0  0  0  0  0
    0.0082   -4.1283    0.0000 C   0  0  0  0  0  0  0  0  0  0  0  0
   -0.7051   -4.5436    0.0000 C   0  0  0  0  0  0  0  0  0  0  0  0
   -1.2777   -4.2157    0.0000 O   0  0  0  0  0  0  0  0  0  0  0  0
   -0.7030   -5.2036    0.0000 O   0  0  0  0  0  0  0  0  0  0  0  0
   -1.4292    0.8252    0.0000 C   0  0  0  0  0  0  0  0  0  0  0  0
   -1.4306    1.6501    0.0000 C   0  0  0  0  0  0  0  0  0  0  0  0
   -2.1457    2.0615    0.0000 C   0  0  0  0  0  0  0  0  0  0  0  0
   -2.8594    1.6479    0.0000 C   0  0  0  0  0  0  0  0  0  0  0  0
   -2.8581    0.8229    0.0000 C   0  0  0  0  0  0  0  0  0  0  0  0
   -2.1430    0.4116    0.0000 C   0  0  0  0  0  0  0  0  0  0  0  0
    1.4343   -6.5999    0.0000 C   0  0  0  0  0  0  0  0  0  0  0  0
    0.7189   -7.0116    0.0000 O   0  0  0  0  0  0  0  0  0  0  0  0
    2.0052   -6.9308    0.0000 O   0  0  0  0  0  0  0  0  0  0  0  0
    1.4301    0.8237    0.0000 O   0  0  0  0  0  0  0  0  0  0  0  0
    0.7172   -7.8370    0.0000 C   0  0  0  0  0  0  0  0  0  0  0  0
    0.0018   -8.2487    0.0000 C   0  0  0  0  0  0  0  0  0  0  0  0
    2.1443    0.4100    0.0000 C   0  0  0  0  0  0  0  0  0  0  0  0
    2.8600    0.8212    0.0000 C   0  0  0  0  0  0  0  0  0  0  0  0
    3.5742    0.4075    0.0000 C   0  0  0  0  0  0  0  0  0  0  0  0
    4.1465    0.7363    0.0000 C   0  0  0  0  0  0  0  0  0  0  0  0
    0.0001   -9.0740    0.0000 C   0  0  0  0  0  0  0  0  0  0  0  0
   -0.7153   -9.4857    0.0000 C   0  0  0  0  0  0  0  0  0  0  0  0
   -0.7166  -10.1457    0.0000 C   0  0  0  0  0  0  0  0  0  0  0  0
  9 10  1  0  0  0  0
 20 21  1  0  0  0  0
  2  3  1  0  0  0  0
 21 22  1  0  0  0  0
 10 11  1  0  0  0  0
 21 23  2  0  0  0  0
  5  6  2  0  0  0  0
 11 12  2  0  0  0  0
 24 25  2  0  0  0  0
  6  1  1  0  0  0  0
 25 26  1  0  0  0  0
 11 13  1  0  0  0  0
 26 27  2  0  0  0  0
 13 14  1  0  0  0  0
 27 28  1  0  0  0  0
  1  2  2  0  0  0  0
 28 29  2  0  0  0  0
 29 24  1  0  0  0  0
  4 24  1  0  0  0  0
  2  7  1  0  0  0  0
 16 30  1  0  0  0  0
  3  4  2  0  0  0  0
 30 31  1  0  0  0  0
  7  8  2  0  0  0  0
 30 32  2  0  0  0  0
  6 33  1  0  0  0  0
 13 18  1  0  0  0  0
 31 34  1  0  0  0  0
 14 15  1  0  0  0  0
 34 35  1  0  0  0  0
 15 16  1  0  0  0  0
 33 36  1  0  0  0  0
 16 17  1  0  0  0  0
 36 37  1  0  0  0  0
 17 18  1  0  0  0  0
 37 38  1  0  0  0  0
  7  9  1  0  0  0  0
 38 39  1  0  0  0  0
 10 19  1  6  0  0  0
 35 40  1  0  0  0  0
  4  5  1  0  0  0  0
 40 41  1  0  0  0  0
 19 20  1  0  0  0  0
 41 42  1  0  0  0  0
M  END
>  <Mol Weight>
582.6878

>  <Formula>
C31H42N4O7

>  <chembl_id>
CHEMBL559340

$$$$

  Mrv0541 06201412482D          

 42 48  0  0  0  0            999 V2000
    5.5552   -9.6249    0.0000 C   0  0  0  0  0  0  0  0  0  0  0  0
    6.1965   -8.9413    0.0000 C   0  0  0  0  0  0  0  0  0  0  0  0
    6.3597   -9.3999    0.0000 C   0  0  0  0  0  0  0  0  0  0  0  0
    6.9078   -9.2039    0.0000 C   0  0  0  0  0  0  0  0  0  0  0  0
    7.1124   -9.7027    0.0000 C   0  0  0  0  0  0  0  0  0  0  0  0
    7.6557   -9.0184    0.0000 C   0  0  0  0  0  0  0  0  0  0  0  0
    6.3570   -8.5516    0.0000 C   0  0  0  0  0  0  0  0  0  0  0  0
    6.9136   -7.8895    0.0000 C   0  0  0  0  0  0  0  0  0  0  0  0
    6.1920   -8.1459    0.0000 C   0  0  0  0  0  0  0  0  0  0  0  0
    7.6615   -8.1995    0.0000 C   0  0  0  0  0  0  0  0  0  0  0  0
    7.6667  -11.7500    0.0000 C   0  0  0  0  0  0  0  0  0  0  0  0
    8.3787  -11.3333    0.0000 C   0  0  0  0  0  0  0  0  0  0  0  0
    9.0907  -11.7500    0.0000 C   0  0  2  0  0  0  0  0  0  0  0  0
    9.7960  -12.9882    0.0000 C   0  0  0  0  0  0  0  0  0  0  0  0
   10.5128  -12.5810    0.0000 C   0  0  0  0  0  0  0  0  0  0  0  0
   10.5163  -11.7561    0.0000 C   0  0  0  0  0  0  0  0  0  0  0  0
    9.8030  -11.3382    0.0000 C   0  0  1  0  0  0  0  0  0  0  0  0
    9.0833  -10.9250    0.0000 C   0  0  0  0  0  0  0  0  0  0  0  0
    8.3787  -12.9833    0.0000 C   0  0  2  0  0  0  0  0  0  0  0  0
    7.6667  -12.5750    0.0000 C   0  0  2  0  0  0  0  0  0  0  0  0
    6.9610  -12.9852    0.0000 O   0  0  0  0  0  0  0  0  0  0  0  0
    7.6731  -14.2137    0.0000 O   0  0  0  0  0  0  0  0  0  0  0  0
    8.3850  -13.8018    0.0000 C   0  0  0  0  0  0  0  0  0  0  0  0
    9.0875  -13.3958    0.0000 C   0  0  0  0  0  0  0  0  0  0  0  0
    9.8053  -10.5133    0.0000 C   0  0  0  0  0  0  0  0  0  0  0  0
   11.2329  -11.3473    0.0000 C   0  0  0  0  0  0  0  0  0  0  0  0
   10.5210  -10.1028    0.0000 C   0  0  0  0  0  0  0  0  0  0  0  0
   10.5233   -9.2778    0.0000 C   0  0  0  0  0  0  0  0  0  0  0  0
   11.1908   -8.7977    0.0000 C   0  0  0  0  0  0  0  0  0  0  0  0
   10.9381   -8.0123    0.0000 O   0  0  0  0  0  0  0  0  0  0  0  0
   10.1130   -8.0099    0.0000 C   0  0  0  0  0  0  0  0  0  0  0  0
    9.8560   -8.7938    0.0000 C   0  0  1  0  0  0  0  0  0  0  0  0
   11.9744   -9.0556    0.0000 O   0  0  0  0  0  0  0  0  0  0  0  0
    9.0715   -9.0480    0.0000 O   0  0  0  0  0  0  0  0  0  0  0  0
    8.3731   -8.6088    0.0000 C   0  0  0  0  0  0  0  0  0  0  0  0
    8.4043   -7.7844    0.0000 O   0  0  0  0  0  0  0  0  0  0  0  0
    6.9542  -13.8000    0.0000 C   0  0  0  0  0  0  0  0  0  0  0  0
    6.1542  -13.5833    0.0000 C   0  0  0  0  0  0  0  0  0  0  0  0
    6.3667  -14.3833    0.0000 C   0  0  0  0  0  0  0  0  0  0  0  0
    6.9500  -12.1625    0.0000 H   0  0  0  0  0  0  0  0  0  0  0  0
    9.0872  -12.5750    0.0000 C   0  0  2  0  0  0  0  0  0  0  0  0
    8.3727  -12.1625    0.0000 H   0  0  0  0  0  0  0  0  0  0  0  0
  3  7  1  0  0  0  0
 13 18  1  6  0  0  0
 19 20  1  0  0  0  0
  2  9  1  0  0  0  0
  6 10  1  0  0  0  0
 10  8  1  0  0  0  0
  8  9  1  0  0  0  0
 20 11  1  0  0  0  0
 19 23  1  0  0  0  0
 20 21  1  0  0  0  0
 22 23  1  0  0  0  0
 19 24  1  1  0  0  0
  1  2  1  0  0  0  0
 17 25  1  6  0  0  0
 11 12  1  0  0  0  0
 16 26  2  0  0  0  0
 41 19  1  0  0  0  0
 25 27  1  0  0  0  0
 13 12  1  0  0  0  0
 27 28  2  0  0  0  0
 28 29  1  0  0  0  0
 41 13  1  0  0  0  0
  1  3  1  0  0  0  0
  2  4  1  0  0  0  0
  3  5  1  0  0  0  0
 29 30  1  0  0  0  0
 30 31  1  0  0  0  0
 31 32  1  0  0  0  0
 32 28  1  0  0  0  0
  4  6  1  0  0  0  0
 29 33  2  0  0  0  0
  5  6  1  0  0  0  0
 32 34  1  6  0  0  0
  7  8  1  0  0  0  0
 34 35  1  0  0  0  0
 13 17  1  0  0  0  0
 35 36  2  0  0  0  0
 35  6  1  0  0  0  0
 21 37  1  0  0  0  0
 41 14  1  0  0  0  0
 22 37  1  0  0  0  0
 14 15  1  0  0  0  0
 37 38  1  0  0  0  0
 15 16  1  0  0  0  0
 37 39  1  0  0  0  0
 17 16  1  0  0  0  0
 20 40  1  1  0  0  0
 41 42  1  1  0  0  0
M  END
>  <Mol Weight>
552.7413

>  <Formula>
C34H48O6

>  <chembl_id>
CHEMBL1163213

$$$$

  Mrv0541 06201412482D          

 41 45  0  0  0  0            999 V2000
   -2.3201  -12.1030    0.0000 C   0  0  0  0  0  0  0  0  0  0  0  0
   -1.6056  -12.5155    0.0000 C   0  0  0  0  0  0  0  0  0  0  0  0
   -0.8912  -12.1030    0.0000 C   0  0  0  0  0  0  0  0  0  0  0  0
   -2.3201  -11.2780    0.0000 C   0  0  0  0  0  0  0  0  0  0  0  0
   -1.6056  -10.8655    0.0000 C   0  0  0  0  0  0  0  0  0  0  0  0
   -0.8912  -11.2780    0.0000 C   0  0  0  0  0  0  0  0  0  0  0  0
   -0.1767  -10.0405    0.0000 C   0  0  0  0  0  0  0  0  0  0  0  0
   -0.8912   -9.6280    0.0000 N   0  0  0  0  0  0  0  0  0  0  0  0
   -1.6056  -10.0405    0.0000 C   0  0  0  0  0  0  0  0  0  0  0  0
   -2.3201   -9.6280    0.0000 N   0  0  0  0  0  0  0  0  0  0  0  0
    0.5378   -9.6280    0.0000 N   0  0  0  0  0  0  0  0  0  0  0  0
    0.5378   -8.8030    0.0000 C   0  0  0  0  0  0  0  0  0  0  0  0
    1.2522   -8.3905    0.0000 C   0  0  0  0  0  0  0  0  0  0  0  0
    1.9667   -8.8030    0.0000 N   0  0  0  0  0  0  0  0  0  0  0  0
    1.9667   -9.6280    0.0000 C   0  0  0  0  0  0  0  0  0  0  0  0
    1.2522  -10.0405    0.0000 C   0  0  0  0  0  0  0  0  0  0  0  0
   -3.0346  -12.5155    0.0000 O   0  0  0  0  0  0  0  0  0  0  0  0
   -1.6056  -13.3405    0.0000 O   0  0  0  0  0  0  0  0  0  0  0  0
   -0.8912  -13.7530    0.0000 C   0  0  0  0  0  0  0  0  0  0  0  0
   -3.7491  -13.7530    0.0000 C   0  0  0  0  0  0  0  0  0  0  0  0
   -3.7491  -14.5780    0.0000 N   0  0  0  0  0  0  0  0  0  0  0  0
   -4.4635  -14.9905    0.0000 C   0  0  0  0  0  0  0  0  0  0  0  0
   -3.0346  -13.3405    0.0000 C   0  0  0  0  0  0  0  0  0  0  0  0
   -0.8912  -14.5780    0.0000 C   0  0  0  0  0  0  0  0  0  0  0  0
   -3.0346  -14.9905    0.0000 C   0  0  0  0  0  0  0  0  0  0  0  0
   -0.1767  -14.9905    0.0000 N   0  0  0  0  0  0  0  0  0  0  0  0
    0.5378  -14.5780    0.0000 C   0  0  0  0  0  0  0  0  0  0  0  0
   -0.1767  -15.8155    0.0000 C   0  0  0  0  0  0  0  0  0  0  0  0
    2.6812   -8.3905    0.0000 C   0  0  0  0  0  0  0  0  0  0  0  0
    2.6812   -7.5655    0.0000 C   0  0  0  0  0  0  0  0  0  0  0  0
    3.3956   -7.1530    0.0000 C   0  0  0  0  0  0  0  0  0  0  0  0
    3.3956   -8.8030    0.0000 C   0  0  0  0  0  0  0  0  0  0  0  0
    4.1101   -8.3905    0.0000 C   0  0  0  0  0  0  0  0  0  0  0  0
    4.1101   -7.5655    0.0000 C   0  0  0  0  0  0  0  0  0  0  0  0
    4.8246   -7.1530    0.0000 C   0  0  0  0  0  0  0  0  0  0  0  0
    5.5391   -7.5655    0.0000 C   0  0  0  0  0  0  0  0  0  0  0  0
    5.5391   -8.3905    0.0000 C   0  0  0  0  0  0  0  0  0  0  0  0
    4.8246   -8.8030    0.0000 C   0  0  0  0  0  0  0  0  0  0  0  0
    3.3956   -9.6280    0.0000 O   0  0  0  0  0  0  0  0  0  0  0  0
    3.3956   -6.3280    0.0000 O   0  0  0  0  0  0  0  0  0  0  0  0
   -0.1767  -10.8655    0.0000 N   0  0  0  0  0  0  0  0  0  0  0  0
  4  1  1  0  0  0  0
 18 19  1  0  0  0  0
 17 23  1  0  0  0  0
  8  9  2  0  0  0  0
 23 20  1  0  0  0  0
  9  5  1  0  0  0  0
 20 21  1  0  0  0  0
 21 22  1  0  0  0  0
 21 25  1  0  0  0  0
  9 10  1  0  0  0  0
  2  3  1  0  0  0  0
 19 24  1  0  0  0  0
  7 11  1  0  0  0  0
 11 12  1  0  0  0  0
 24 26  1  0  0  0  0
  5  6  1  0  0  0  0
 26 27  1  0  0  0  0
  3  6  2  0  0  0  0
 26 28  1  0  0  0  0
  6 41  1  0  0  0  0
 14 29  1  0  0  0  0
  1  2  2  0  0  0  0
 29 30  2  0  0  0  0
 41  7  2  0  0  0  0
 30 31  1  0  0  0  0
 31 34  1  0  0  0  0
 11 16  1  0  0  0  0
 33 32  1  0  0  0  0
 32 29  1  0  0  0  0
 12 13  1  0  0  0  0
 13 14  1  0  0  0  0
 33 34  1  0  0  0  0
 14 15  1  0  0  0  0
 34 35  1  0  0  0  0
 15 16  1  0  0  0  0
 35 36  2  0  0  0  0
  5  4  2  0  0  0  0
 36 37  1  0  0  0  0
  1 17  1  0  0  0  0
 37 38  2  0  0  0  0
 38 33  1  0  0  0  0
  7  8  1  0  0  0  0
 32 39  2  0  0  0  0
  2 18  1  0  0  0  0
 31 40  2  0  0  0  0
M  END
>  <Mol Weight>
561.6752

>  <Formula>
C30H39N7O4

>  <chembl_id>
CHEMBL559342

$$$$

  Mrv0541 06201412482D          

 42 45  0  0  0  0            999 V2000
   -3.7186  -10.9145    0.0000 N   0  0  0  0  0  0  0  0  0  0  0  0
   -3.0117  -12.1560    0.0000 N   0  0  0  0  0  0  0  0  0  0  0  0
   -2.2875  -10.9031    0.0000 C   0  0  0  0  0  0  0  0  0  0  0  0
   -2.2875  -11.7307    0.0000 C   0  0  0  0  0  0  0  0  0  0  0  0
   -3.0117  -10.4893    0.0000 C   0  0  0  0  0  0  0  0  0  0  0  0
   -3.7186  -11.7422    0.0000 C   0  0  0  0  0  0  0  0  0  0  0  0
   -1.5805  -10.4893    0.0000 N   0  0  0  0  0  0  0  0  0  0  0  0
    3.4313   -9.2133    0.0000 C   0  0  0  0  0  0  0  0  0  0  0  0
   -1.5691  -12.1445    0.0000 N   0  0  0  0  0  0  0  0  0  0  0  0
    4.1440   -9.6213    0.0000 N   0  0  0  0  0  0  0  0  0  0  0  0
   10.5697   -9.3455    0.0000 B   0  0  0  0  0  0  0  0  0  0  0  0
   -0.8563  -10.8973    0.0000 C   0  0  0  0  0  0  0  0  0  0  0  0
    4.8509   -8.3684    0.0000 C   0  0  0  0  0  0  0  0  0  0  0  0
    9.8340   -9.7306    0.0000 C   0  0  0  0  0  0  0  0  0  0  0  0
    0.5748  -10.8858    0.0000 N   0  0  0  0  0  0  0  0  0  0  0  0
    4.8624   -9.1961    0.0000 C   0  0  0  0  0  0  0  0  0  0  0  0
    9.1385   -9.2937    0.0000 C   0  0  0  0  0  0  0  0  0  0  0  0
    7.0177   -9.5926    0.0000 C   0  0  0  0  0  0  0  0  0  0  0  0
    2.7129   -9.6271    0.0000 C   0  0  0  0  0  0  0  0  0  0  0  0
    7.7247   -9.2248    0.0000 N   0  0  0  0  0  0  0  0  0  0  0  0
   -0.1494  -10.4720    0.0000 C   0  0  0  0  0  0  0  0  0  0  0  0
    1.2932  -10.4662    0.0000 C   0  0  0  0  0  0  0  0  0  0  0  0
    8.4202   -9.6616    0.0000 C   0  0  0  0  0  0  0  0  0  0  0  0
    3.4198   -8.3857    0.0000 O   0  0  0  0  0  0  0  0  0  0  0  0
    4.1268   -7.9661    0.0000 O   0  0  0  0  0  0  0  0  0  0  0  0
   -0.8563  -11.7307    0.0000 C   0  0  0  0  0  0  0  0  0  0  0  0
    7.0063  -10.4030    0.0000 O   0  0  0  0  0  0  0  0  0  0  0  0
   -3.0117   -9.6616    0.0000 N   0  0  0  0  0  0  0  0  0  0  0  0
    2.7129  -10.4548    0.0000 C   0  0  0  0  0  0  0  0  0  0  0  0
    1.9887   -9.2248    0.0000 C   0  0  0  0  0  0  0  0  0  0  0  0
    2.0059  -10.8800    0.0000 C   0  0  0  0  0  0  0  0  0  0  0  0
    1.2817   -9.6444    0.0000 C   0  0  0  0  0  0  0  0  0  0  0  0
   -4.4428  -12.1445    0.0000 N   0  0  0  0  0  0  0  0  0  0  0  0
    5.5751   -9.6099    0.0000 C   0  0  0  0  0  0  0  0  0  0  0  0
    6.2935   -9.1903    0.0000 C   0  0  0  0  0  0  0  0  0  0  0  0
   11.2766   -9.7765    0.0000 O   0  0  0  0  0  0  0  0  0  0  0  0
   10.5927   -8.5178    0.0000 O   0  0  0  0  0  0  0  0  0  0  0  0
    5.5693   -7.9546    0.0000 O   0  0  0  0  0  0  0  0  0  0  0  0
    9.8283  -10.5410    0.0000 C   0  0  0  0  0  0  0  0  0  0  0  0
    0.5862  -11.7135    0.0000 C   0  0  0  0  0  0  0  0  0  0  0  0
    9.1213  -10.9031    0.0000 C   0  0  0  0  0  0  0  0  0  0  0  0
    8.4202  -10.4720    0.0000 C   0  0  0  0  0  0  0  0  0  0  0  0
  2  6  1  0  0  0  0
  3  5  2  0  0  0  0
  4  2  2  0  0  0  0
  5  1  1  0  0  0  0
  6  1  2  0  0  0  0
  7  3  1  0  0  0  0
  8 19  1  0  0  0  0
  9  4  1  0  0  0  0
 10  8  1  0  0  0  0
 11 14  1  0  0  0  0
 12  7  2  0  0  0  0
 13 16  1  0  0  0  0
 14 17  1  0  0  0  0
 15 21  1  0  0  0  0
 16 10  1  0  0  0  0
 17 23  2  0  0  0  0
 18 35  1  0  0  0  0
 19 30  1  0  0  0  0
 20 18  1  0  0  0  0
 21 12  1  0  0  0  0
 22 15  1  0  0  0  0
 23 20  1  0  0  0  0
 24  8  2  0  0  0  0
 25 13  2  0  0  0  0
 26  9  2  0  0  0  0
 27 18  2  0  0  0  0
 28  5  1  0  0  0  0
 29 31  1  0  0  0  0
 30 32  2  0  0  0  0
 31 22  2  0  0  0  0
 32 22  1  0  0  0  0
 33  6  1  0  0  0  0
 34 16  1  0  0  0  0
 35 34  1  0  0  0  0
 36 11  1  0  0  0  0
 37 11  1  0  0  0  0
 38 13  1  0  0  0  0
 39 41  1  0  0  0  0
 40 15  1  0  0  0  0
 41 42  2  0  0  0  0
 42 23  1  0  0  0  0
  3  4  1  0  0  0  0
 26 12  1  0  0  0  0
 29 19  2  0  0  0  0
 14 39  2  0  0  0  0
M  END
>  <Mol Weight>
573.368

>  <Formula>
C26H28BN9O6

>  <chembl_id>
CHEMBL157117

$$$$

  Mrv0541 06201412482D          

 41 46  0  0  0  0            999 V2000
    3.3464   -4.0198    0.0000 C   0  0  0  0  0  0  0  0  0  0  0  0
    3.5958   -3.2424    0.0000 S   0  0  0  0  0  0  0  0  0  0  0  0
    3.3588   -5.3542    0.0000 N   0  0  0  0  0  0  0  0  0  0  0  0
    7.2747   -1.6753    0.0000 N   0  0  0  0  0  0  0  0  0  0  0  0
    2.5732   -5.1048    0.0000 C   0  0  0  0  0  0  0  0  0  0  0  0
    2.5690   -4.2817    0.0000 C   0  0  0  0  0  0  0  0  0  0  0  0
    3.8410   -4.6890    0.0000 C   0  0  0  0  0  0  0  0  0  0  0  0
    3.6165   -6.1398    0.0000 C   0  0  0  0  0  0  0  0  0  0  0  0
    8.3180   -0.8273    0.0000 N   0  0  0  0  0  0  0  0  0  0  0  0
    7.4867   -0.8771    0.0000 C   0  0  0  0  0  0  0  0  0  0  0  0
    4.6184   -2.9847    0.0000 N   0  0  0  0  0  0  0  0  0  0  0  0
    7.9606   -2.1242    0.0000 C   0  0  0  0  0  0  0  0  0  0  0  0
    8.6090   -1.6005    0.0000 C   0  0  0  0  0  0  0  0  0  0  0  0
    7.0253   -2.4609    0.0000 C   0  0  0  0  0  0  0  0  0  0  0  0
    1.8582   -5.5163    0.0000 C   0  0  0  0  0  0  0  0  0  0  0  0
    6.2229   -2.6355    0.0000 N   0  0  0  0  0  0  0  0  0  0  0  0
    1.8499   -3.8701    0.0000 C   0  0  0  0  0  0  0  0  0  0  0  0
    3.0471   -2.6313    0.0000 O   0  0  0  0  0  0  0  0  0  0  0  0
    4.0073   -3.9532    0.0000 O   0  0  0  0  0  0  0  0  0  0  0  0
    1.1390   -5.1130    0.0000 C   0  0  0  0  0  0  0  0  0  0  0  0
    3.0720   -6.7509    0.0000 N   0  0  0  0  0  0  0  0  0  0  0  0
    5.1671   -3.5958    0.0000 C   0  0  0  0  0  0  0  0  0  0  0  0
    4.8636   -2.2073    0.0000 C   0  0  0  0  0  0  0  0  0  0  0  0
    4.4189   -6.3019    0.0000 O   0  0  0  0  0  0  0  0  0  0  0  0
    0.4365   -5.5288    0.0000 C   0  0  0  0  0  0  0  0  0  0  0  0
    1.1390   -4.2900    0.0000 C   0  0  0  0  0  0  0  0  0  0  0  0
    9.5194   -2.7186    0.0000 N   0  0  0  0  0  0  0  0  0  0  0  0
    5.6659   -2.0245    0.0000 C   0  0  0  0  0  0  0  0  0  0  0  0
    5.9735   -3.4212    0.0000 C   0  0  0  0  0  0  0  0  0  0  0  0
   -0.2826   -5.1130    0.0000 C   0  0  0  0  0  0  0  0  0  0  0  0
    0.4365   -6.3476    0.0000 C   0  0  0  0  0  0  0  0  0  0  0  0
    8.0936   -2.9473    0.0000 C   0  0  0  0  0  0  0  0  0  0  0  0
    9.3905   -1.8998    0.0000 C   0  0  0  0  0  0  0  0  0  0  0  0
   -0.9935   -6.3518    0.0000 C   0  0  0  0  0  0  0  0  0  0  0  0
    6.9629   -0.2369    0.0000 C   0  0  0  0  0  0  0  0  0  0  0  0
   -0.2702   -6.7592    0.0000 C   0  0  0  0  0  0  0  0  0  0  0  0
   -0.9935   -5.5288    0.0000 C   0  0  0  0  0  0  0  0  0  0  0  0
   -1.7916   -6.5638    0.0000 F   0  0  0  0  0  0  0  0  0  0  0  0
    8.8709   -3.2466    0.0000 C   0  0  0  0  0  0  0  0  0  0  0  0
    3.3297   -7.5366    0.0000 C   0  0  0  0  0  0  0  0  0  0  0  0
    2.2614   -6.5888    0.0000 C   0  0  0  0  0  0  0  0  0  0  0  0
  2  1  1  0  0  0  0
  3  7  1  0  0  0  0
  4 14  1  0  0  0  0
  5  6  1  0  0  0  0
  6  1  1  0  0  0  0
  7  1  2  0  0  0  0
  8  3  1  0  0  0  0
  9 10  2  0  0  0  0
 10  4  1  0  0  0  0
 11  2  1  0  0  0  0
 12  4  1  0  0  0  0
 13 12  2  0  0  0  0
 14 16  1  0  0  0  0
 15  5  2  0  0  0  0
 16 28  1  0  0  0  0
 17  6  2  0  0  0  0
 18  2  2  0  0  0  0
 19  2  2  0  0  0  0
 20 26  2  0  0  0  0
 21  8  1  0  0  0  0
 22 11  1  0  0  0  0
 23 11  1  0  0  0  0
 24  8  2  0  0  0  0
 25 20  1  0  0  0  0
 26 17  1  0  0  0  0
 27 39  1  0  0  0  0
 28 23  1  0  0  0  0
 29 22  1  0  0  0  0
 30 25  2  0  0  0  0
 31 25  1  0  0  0  0
 32 12  1  0  0  0  0
 33 13  1  0  0  0  0
 34 36  1  0  0  0  0
 35 10  1  0  0  0  0
 36 31  2  0  0  0  0
 37 30  1  0  0  0  0
 38 34  1  0  0  0  0
 39 32  2  0  0  0  0
 40 21  1  0  0  0  0
 41 21  1  0  0  0  0
  3  5  1  0  0  0  0
 20 15  1  0  0  0  0
 16 29  1  0  0  0  0
 34 37  2  0  0  0  0
  9 13  1  0  0  0  0
 33 27  2  0  0  0  0
M  END
>  <Mol Weight>
575.657

>  <Formula>
C29H30FN7O3S

>  <chembl_id>
CHEMBL174668

$$$$

  Mrv0541 06201412482D          

 42 47  0  0  0  0            999 V2000
   -1.2603   -1.3797    0.0000 C   0  0  0  0  0  0  0  0  0  0  0  0
   -0.5459   -1.7922    0.0000 C   0  0  0  0  0  0  0  0  0  0  0  0
   -0.5459   -2.6172    0.0000 C   0  0  0  0  0  0  0  0  0  0  0  0
    0.1686   -3.0297    0.0000 C   0  0  0  0  0  0  0  0  0  0  0  0
    0.1686   -3.8547    0.0000 O   0  0  0  0  0  0  0  0  0  0  0  0
   -0.5459   -4.2672    0.0000 C   0  0  0  0  0  0  0  0  0  0  0  0
   -0.5459   -5.0922    0.0000 C   0  0  0  0  0  0  0  0  0  0  0  0
   -1.2133   -5.5771    0.0000 C   0  0  0  0  0  0  0  0  0  0  0  0
   -0.9584   -6.3617    0.0000 C   0  0  0  0  0  0  0  0  0  0  0  0
   -0.1334   -6.3617    0.0000 C   0  0  0  0  0  0  0  0  0  0  0  0
    0.1216   -5.5771    0.0000 O   0  0  0  0  0  0  0  0  0  0  0  0
    0.8831   -2.6172    0.0000 C   0  0  0  0  0  0  0  0  0  0  0  0
    1.5975   -3.0297    0.0000 C   0  0  0  0  0  0  0  0  0  0  0  0
    2.3120   -2.6172    0.0000 C   0  0  0  0  0  0  0  0  0  0  0  0
    3.0265   -3.0297    0.0000 N   0  0  0  0  0  0  0  0  0  0  0  0
    3.7410   -2.6172    0.0000 C   0  0  0  0  0  0  0  0  0  0  0  0
    3.7410   -1.7922    0.0000 O   0  0  0  0  0  0  0  0  0  0  0  0
    4.4554   -3.0297    0.0000 C   0  0  0  0  0  0  0  0  0  0  0  0
    4.4554   -3.8547    0.0000 O   0  0  0  0  0  0  0  0  0  0  0  0
    5.1699   -2.6172    0.0000 N   0  0  0  0  0  0  0  0  0  0  0  0
    5.8844   -3.0297    0.0000 C   0  0  0  0  0  0  0  0  0  0  0  0
    5.8844   -3.8547    0.0000 C   0  0  0  0  0  0  0  0  0  0  0  0
    6.5988   -4.2672    0.0000 C   0  0  0  0  0  0  0  0  0  0  0  0
    7.3133   -3.8547    0.0000 C   0  0  0  0  0  0  0  0  0  0  0  0
    8.0278   -4.2672    0.0000 N   0  0  0  0  0  0  0  0  0  0  0  0
    8.7422   -3.8547    0.0000 C   0  0  0  0  0  0  0  0  0  0  0  0
    9.4567   -4.2672    0.0000 C   0  0  0  0  0  0  0  0  0  0  0  0
    8.7422   -3.0297    0.0000 C   0  0  0  0  0  0  0  0  0  0  0  0
    8.0278   -2.6172    0.0000 C   0  0  0  0  0  0  0  0  0  0  0  0
    8.0278   -1.7922    0.0000 O   0  0  0  0  0  0  0  0  0  0  0  0
    8.7422   -1.3797    0.0000 C   0  0  0  0  0  0  0  0  0  0  0  0
    8.7422   -0.5547    0.0000 C   0  0  0  0  0  0  0  0  0  0  0  0
    9.4097   -0.0698    0.0000 C   0  0  0  0  0  0  0  0  0  0  0  0
    9.1547    0.7149    0.0000 C   0  0  0  0  0  0  0  0  0  0  0  0
    8.3297    0.7149    0.0000 C   0  0  0  0  0  0  0  0  0  0  0  0
    8.0748   -0.0698    0.0000 O   0  0  0  0  0  0  0  0  0  0  0  0
    7.3133   -3.0297    0.0000 C   0  0  0  0  0  0  0  0  0  0  0  0
    6.5988   -2.6172    0.0000 C   0  0  0  0  0  0  0  0  0  0  0  0
    2.3120   -1.7922    0.0000 C   0  0  0  0  0  0  0  0  0  0  0  0
    1.5975   -1.3797    0.0000 C   0  0  0  0  0  0  0  0  0  0  0  0
    0.8831   -1.7922    0.0000 C   0  0  0  0  0  0  0  0  0  0  0  0
    0.1686   -1.3797    0.0000 N   0  0  0  0  0  0  0  0  0  0  0  0
  1  2  1  0  0  0  0
  2 42  2  0  0  0  0
  2  3  1  0  0  0  0
  3  4  2  0  0  0  0
  4  5  1  0  0  0  0
  5  6  1  0  0  0  0
  6  7  1  0  0  0  0
  7 11  1  0  0  0  0
  7  8  1  0  0  0  0
  8  9  1  0  0  0  0
  9 10  1  0  0  0  0
 10 11  1  0  0  0  0
  4 12  1  0  0  0  0
 12 41  2  0  0  0  0
 12 13  1  0  0  0  0
 13 14  2  0  0  0  0
 14 15  1  0  0  0  0
 15 16  1  0  0  0  0
 16 17  2  0  0  0  0
 16 18  1  0  0  0  0
 18 19  2  0  0  0  0
 18 20  1  0  0  0  0
 20 21  1  0  0  0  0
 21 38  2  0  0  0  0
 21 22  1  0  0  0  0
 22 23  2  0  0  0  0
 23 24  1  0  0  0  0
 24 37  2  0  0  0  0
 24 25  1  0  0  0  0
 25 26  2  0  0  0  0
 26 27  1  0  0  0  0
 26 28  1  0  0  0  0
 28 29  2  0  0  0  0
 29 30  1  0  0  0  0
 30 31  1  0  0  0  0
 31 32  1  0  0  0  0
 32 36  1  0  0  0  0
 32 33  1  0  0  0  0
 33 34  1  0  0  0  0
 34 35  1  0  0  0  0
 35 36  1  0  0  0  0
 29 37  1  0  0  0  0
 37 38  1  0  0  0  0
 14 39  1  0  0  0  0
 39 40  2  0  0  0  0
 40 41  1  0  0  0  0
 41 42  1  0  0  0  0
M  END
>  <Mol Weight>
570.6356

>  <Formula>
C32H34N4O6

>  <chembl_id>
CHEMBL582554

$$$$

  Mrv0541 06201412482D          

 43 47  0  0  0  0            999 V2000
   19.3425  -26.1734    0.0000 C   0  0  0  0  0  0  0  0  0  0  0  0
   18.5153  -26.1835    0.0000 C   0  0  0  0  0  0  0  0  0  0  0  0
   18.0927  -25.4728    0.0000 C   0  0  0  0  0  0  0  0  0  0  0  0
   18.4930  -24.7525    0.0000 C   0  0  0  0  0  0  0  0  0  0  0  0
   19.3246  -24.7463    0.0000 C   0  0  0  0  0  0  0  0  0  0  0  0
   19.7472  -25.4568    0.0000 C   0  0  0  0  0  0  0  0  0  0  0  0
   17.0213  -23.1822    0.0000 C   0  0  0  0  0  0  0  0  0  0  0  0
   17.7948  -22.7429    0.0000 N   0  0  0  0  0  0  0  0  0  0  0  0
   17.7977  -21.9163    0.0000 C   0  0  0  0  0  0  0  0  0  0  0  0
   17.0792  -21.5043    0.0000 C   0  0  0  0  0  0  0  0  0  0  0  0
   16.3682  -21.9185    0.0000 C   0  0  0  0  0  0  0  0  0  0  0  0
   15.6559  -21.5060    0.0000 C   0  0  0  0  0  0  0  0  0  0  0  0
   14.9367  -21.9161    0.0000 C   0  0  0  0  0  0  0  0  0  0  0  0
   14.9379  -22.7427    0.0000 C   0  0  0  0  0  0  0  0  0  0  0  0
   15.6564  -23.1547    0.0000 C   0  0  0  0  0  0  0  0  0  0  0  0
   16.3674  -22.7405    0.0000 C   0  0  0  0  0  0  0  0  0  0  0  0
   17.2553  -24.0491    0.0000 C   0  0  0  0  0  0  0  0  0  0  0  0
   18.0706  -24.0460    0.0000 C   0  0  0  0  0  0  0  0  0  0  0  0
   18.3850  -23.2430    0.0000 C   0  0  0  0  0  0  0  0  0  0  0  0
   16.8575  -24.6843    0.0000 C   0  0  0  0  0  0  0  0  0  0  0  0
   17.2838  -25.3889    0.0000 C   0  0  0  0  0  0  0  0  0  0  0  0
   16.8818  -26.1128    0.0000 C   0  0  0  0  0  0  0  0  0  0  0  0
   16.0547  -26.1281    0.0000 C   0  0  0  0  0  0  0  0  0  0  0  0
   15.6318  -25.4185    0.0000 C   0  0  0  0  0  0  0  0  0  0  0  0
   16.0306  -24.6974    0.0000 C   0  0  0  0  0  0  0  0  0  0  0  0
   14.8048  -25.4316    0.0000 O   0  0  0  0  0  0  0  0  0  0  0  0
   14.4041  -26.1516    0.0000 C   0  0  0  0  0  0  0  0  0  0  0  0
   15.6547  -26.8520    0.0000 O   0  0  0  0  0  0  0  0  0  0  0  0
   14.8265  -26.8691    0.0000 C   0  0  0  0  0  0  0  0  0  0  0  0
   17.3103  -26.8298    0.0000 O   0  0  0  0  0  0  0  0  0  0  0  0
   14.2186  -23.1611    0.0000 O   0  0  0  0  0  0  0  0  0  0  0  0
   13.4980  -22.7486    0.0000 C   0  0  0  0  0  0  0  0  0  0  0  0
   14.2182  -21.5041    0.0000 O   0  0  0  0  0  0  0  0  0  0  0  0
   16.9087  -27.5504    0.0000 C   0  0  0  0  0  0  0  0  0  0  0  0
   19.7626  -26.8833    0.0000 O   0  0  0  0  0  0  0  0  0  0  0  0
   19.3579  -27.6021    0.0000 C   0  0  0  0  0  0  0  0  0  0  0  0
   20.5721  -25.4476    0.0000 O   0  0  0  0  0  0  0  0  0  0  0  0
   20.9926  -26.1574    0.0000 C   0  0  0  0  0  0  0  0  0  0  0  0
   21.8175  -26.1482    0.0000 C   0  0  0  0  0  0  0  0  0  0  0  0
   20.5881  -26.8764    0.0000 C   0  0  0  0  0  0  0  0  0  0  0  0
   14.2157  -20.6792    0.0000 C   0  0  0  0  0  0  0  0  0  0  0  0
   13.5000  -20.2689    0.0000 C   0  0  0  0  0  0  0  0  0  0  0  0
   14.9288  -20.2645    0.0000 C   0  0  0  0  0  0  0  0  0  0  0  0
 10 11  1  0  0  0  0
 11 12  1  0  0  0  0
 12 13  2  0  0  0  0
 13 14  1  0  0  0  0
 14 15  2  0  0  0  0
 15 16  1  0  0  0  0
  7 16  1  0  0  0  0
 11 16  2  0  0  0  0
 17 18  1  0  0  0  0
 18 19  2  0  0  0  0
  7 17  2  0  0  0  0
  8 19  1  0  0  0  0
 20 21  1  0  0  0  0
 21 22  2  0  0  0  0
 22 23  1  0  0  0  0
 23 24  2  0  0  0  0
 24 25  1  0  0  0  0
 20 25  2  0  0  0  0
 26 27  1  0  0  0  0
 24 26  1  0  0  0  0
 28 29  1  0  0  0  0
 23 28  1  0  0  0  0
 22 30  1  0  0  0  0
 17 20  1  0  0  0  0
 31 32  1  0  0  0  0
 14 31  1  0  0  0  0
 13 33  1  0  0  0  0
  4 18  1  0  0  0  0
 30 34  1  0  0  0  0
  1  2  1  0  0  0  0
  1 35  1  0  0  0  0
  2  3  2  0  0  0  0
 35 36  1  0  0  0  0
  3  4  1  0  0  0  0
  6 37  1  0  0  0  0
  4  5  2  0  0  0  0
 37 38  1  0  0  0  0
  5  6  1  0  0  0  0
 38 39  1  0  0  0  0
  1  6  2  0  0  0  0
 38 40  1  0  0  0  0
  7  8  1  0  0  0  0
 33 41  1  0  0  0  0
  8  9  1  0  0  0  0
 41 42  1  0  0  0  0
  9 10  1  0  0  0  0
 41 43  1  0  0  0  0
M  END
>  <Mol Weight>
587.7025

>  <Formula>
C35H41NO7

>  <chembl_id>
CHEMBL582852

$$$$

  Mrv0541 06201412482D          

 43 47  0  0  0  0            999 V2000
    9.7504  -17.8849    0.0000 C   0  0  0  0  0  0  0  0  0  0  0  0
   10.4624  -17.4765    0.0000 C   0  0  1  0  0  0  0  0  0  0  0  0
   10.4624  -16.6515    0.0000 C   0  0  2  0  0  0  0  0  0  0  0  0
    9.7504  -16.2347    0.0000 O   0  0  0  0  0  0  0  0  0  0  0  0
    9.0383  -17.4765    0.0000 C   0  0  0  0  0  0  0  0  0  0  0  0
    9.0409  -16.6533    0.0000 C   0  0  0  0  0  0  0  0  0  0  0  0
    8.3303  -16.2412    0.0000 C   0  0  0  0  0  0  0  0  0  0  0  0
    7.6168  -16.6513    0.0000 C   0  0  0  0  0  0  0  0  0  0  0  0
    7.6182  -17.4777    0.0000 C   0  0  0  0  0  0  0  0  0  0  0  0
    8.3293  -17.8861    0.0000 C   0  0  0  0  0  0  0  0  0  0  0  0
    9.7504  -18.7100    0.0000 O   0  0  0  0  0  0  0  0  0  0  0  0
    6.9023  -16.2386    0.0000 O   0  0  0  0  0  0  0  0  0  0  0  0
   11.1764  -17.8901    0.0000 O   0  0  0  0  0  0  0  0  0  0  0  0
   11.1782  -16.2410    0.0000 C   0  0  0  0  0  0  0  0  0  0  0  0
   11.8882  -16.6595    0.0000 C   0  0  0  0  0  0  0  0  0  0  0  0
   11.8880  -15.0093    0.0000 C   0  0  0  0  0  0  0  0  0  0  0  0
   11.1756  -15.4215    0.0000 C   0  0  0  0  0  0  0  0  0  0  0  0
   12.6062  -15.4238    0.0000 C   0  0  0  0  0  0  0  0  0  0  0  0
   12.6009  -16.2516    0.0000 C   0  0  0  0  0  0  0  0  0  0  0  0
   13.3112  -16.6679    0.0000 O   0  0  0  0  0  0  0  0  0  0  0  0
   14.0313  -16.2608    0.0000 C   0  0  0  0  0  0  0  0  0  0  0  0
   14.0367  -15.4331    0.0000 C   0  0  0  0  0  0  0  0  0  0  0  0
   13.3219  -15.0122    0.0000 O   0  0  0  0  0  0  0  0  0  0  0  0
   14.7544  -15.0259    0.0000 C   0  0  0  0  0  0  0  0  0  0  0  0
   15.4658  -15.4438    0.0000 O   0  0  0  0  0  0  0  0  0  0  0  0
   16.1834  -15.0366    0.0000 C   0  0  0  0  0  0  0  0  0  0  0  0
   16.8948  -15.4545    0.0000 O   0  0  0  0  0  0  0  0  0  0  0  0
   14.7426  -16.6790    0.0000 C   0  0  0  0  0  0  0  0  0  0  0  0
   14.7337  -17.5025    0.0000 C   0  0  0  0  0  0  0  0  0  0  0  0
   15.4442  -17.9207    0.0000 C   0  0  0  0  0  0  0  0  0  0  0  0
   16.1628  -17.5138    0.0000 C   0  0  0  0  0  0  0  0  0  0  0  0
   16.1667  -16.6844    0.0000 C   0  0  0  0  0  0  0  0  0  0  0  0
   15.4558  -16.2700    0.0000 C   0  0  0  0  0  0  0  0  0  0  0  0
   16.8831  -16.2749    0.0000 O   0  0  0  0  0  0  0  0  0  0  0  0
   17.5959  -16.6906    0.0000 C   0  0  0  0  0  0  0  0  0  0  0  0
   16.8747  -17.9309    0.0000 O   0  0  0  0  0  0  0  0  0  0  0  0
   16.1895  -14.2116    0.0000 C   0  0  0  0  0  0  0  0  0  0  0  0
   16.9072  -13.8044    0.0000 C   0  0  0  0  0  0  0  0  0  0  0  0
   16.9134  -12.9793    0.0000 O   0  0  0  0  0  0  0  0  0  0  0  0
   17.6186  -14.2223    0.0000 O   0  0  0  0  0  0  0  0  0  0  0  0
   17.6310  -12.5722    0.0000 C   0  0  0  0  0  0  0  0  0  0  0  0
   17.6372  -11.7471    0.0000 C   0  0  0  0  0  0  0  0  0  0  0  0
    8.3303  -18.7111    0.0000 O   0  0  0  0  0  0  0  0  0  0  0  0
 10  5  1  0  0  0  0
 18 23  1  0  0  0  0
 19 20  1  0  0  0  0
 20 21  1  0  0  0  0
 21 22  1  0  0  0  0
 22 23  1  0  0  0  0
  1 11  2  0  0  0  0
 22 24  1  0  0  0  0
  6  4  1  0  0  0  0
 24 25  1  0  0  0  0
  8 12  1  0  0  0  0
 25 26  1  0  0  0  0
  5  6  2  0  0  0  0
 26 27  2  0  0  0  0
  2 13  1  1  0  0  0
 21 28  1  0  0  0  0
  5  1  1  0  0  0  0
 28 29  2  0  0  0  0
  3 14  1  6  0  0  0
 29 30  1  0  0  0  0
  6  7  1  0  0  0  0
 30 31  2  0  0  0  0
 14 15  2  0  0  0  0
 31 32  1  0  0  0  0
 15 19  1  0  0  0  0
 32 33  2  0  0  0  0
 33 28  1  0  0  0  0
  1  2  1  0  0  0  0
 32 34  1  0  0  0  0
 18 16  1  0  0  0  0
 34 35  1  0  0  0  0
  7  8  2  0  0  0  0
 31 36  1  0  0  0  0
 16 17  2  0  0  0  0
 26 37  1  0  0  0  0
 17 14  1  0  0  0  0
 37 38  1  0  0  0  0
 18 19  2  0  0  0  0
 38 39  1  0  0  0  0
  2  3  1  0  0  0  0
 38 40  2  0  0  0  0
  8  9  1  0  0  0  0
 39 41  1  0  0  0  0
  3  4  1  0  0  0  0
 41 42  1  0  0  0  0
  9 10  2  0  0  0  0
 10 43  1  0  0  0  0
M  END
>  <Mol Weight>
596.5355

>  <Formula>
C30H28O13

>  <chembl_id>
CHEMBL595083

$$$$

  Mrv0541 06201412482D          

 42 46  0  0  0  0            999 V2000
    8.9701   -9.5233    0.0000 N   0  0  0  0  0  0  0  0  0  0  0  0
    8.2556   -9.9358    0.0000 C   0  0  0  0  0  0  0  0  0  0  0  0
    7.5412   -9.5233    0.0000 C   0  0  0  0  0  0  0  0  0  0  0  0
    7.5412   -8.6983    0.0000 C   0  0  0  0  0  0  0  0  0  0  0  0
    8.2556  -10.7608    0.0000 C   0  0  0  0  0  0  0  0  0  0  0  0
    7.5412  -11.1733    0.0000 O   0  0  0  0  0  0  0  0  0  0  0  0
    6.8267  -10.7608    0.0000 C   0  0  0  0  0  0  0  0  0  0  0  0
    6.8267   -9.9358    0.0000 C   0  0  0  0  0  0  0  0  0  0  0  0
    6.1122   -9.5233    0.0000 C   0  0  0  0  0  0  0  0  0  0  0  0
    6.1122  -11.1733    0.0000 C   0  0  0  0  0  0  0  0  0  0  0  0
    5.3978  -10.7608    0.0000 C   0  0  0  0  0  0  0  0  0  0  0  0
    5.3978   -9.9358    0.0000 C   0  0  0  0  0  0  0  0  0  0  0  0
    4.6131   -9.6808    0.0000 N   0  0  0  0  0  0  0  0  0  0  0  0
    4.1282  -10.3483    0.0000 C   0  0  0  0  0  0  0  0  0  0  0  0
    4.6131  -11.0157    0.0000 C   0  0  0  0  0  0  0  0  0  0  0  0
    3.3032  -10.3483    0.0000 C   0  0  0  0  0  0  0  0  0  0  0  0
    2.8907   -9.6338    0.0000 C   0  0  0  0  0  0  0  0  0  0  0  0
    3.6052   -9.2213    0.0000 C   0  0  0  0  0  0  0  0  0  0  0  0
    2.4782   -8.9193    0.0000 C   0  0  0  0  0  0  0  0  0  0  0  0
    2.1762  -10.0463    0.0000 C   0  0  0  0  0  0  0  0  0  0  0  0
    2.1762  -10.8713    0.0000 O   0  0  0  0  0  0  0  0  0  0  0  0
    1.4618   -9.6338    0.0000 O   0  0  0  0  0  0  0  0  0  0  0  0
    4.3582   -8.8962    0.0000 C   0  0  0  0  0  0  0  0  0  0  0  0
    4.9102   -8.2831    0.0000 C   0  0  0  0  0  0  0  0  0  0  0  0
    4.6553   -7.4985    0.0000 C   0  0  0  0  0  0  0  0  0  0  0  0
    5.2073   -6.8854    0.0000 C   0  0  0  0  0  0  0  0  0  0  0  0
    6.0143   -7.0569    0.0000 C   0  0  0  0  0  0  0  0  0  0  0  0
    6.2692   -7.8415    0.0000 C   0  0  0  0  0  0  0  0  0  0  0  0
    5.7172   -8.4546    0.0000 C   0  0  0  0  0  0  0  0  0  0  0  0
    8.9701   -8.6983    0.0000 C   0  0  0  0  0  0  0  0  0  0  0  0
    8.2556   -8.2858    0.0000 C   0  0  0  0  0  0  0  0  0  0  0  0
    4.3582  -11.8003    0.0000 S   0  0  0  0  0  0  0  0  0  0  0  0
    3.5512  -11.9719    0.0000 C   0  0  0  0  0  0  0  0  0  0  0  0
    3.3797  -11.1649    0.0000 C   0  0  0  0  0  0  0  0  0  0  0  0
    3.7227  -12.7788    0.0000 C   0  0  0  0  0  0  0  0  0  0  0  0
    2.7442  -12.1434    0.0000 C   0  0  0  0  0  0  0  0  0  0  0  0
    6.5663   -6.4438    0.0000 C   0  0  0  0  0  0  0  0  0  0  0  0
    6.3114   -5.6592    0.0000 N   0  0  0  0  0  0  0  0  0  0  0  0
    6.8634   -5.0461    0.0000 C   0  0  0  0  0  0  0  0  0  0  0  0
    7.6704   -5.2176    0.0000 C   0  0  0  0  0  0  0  0  0  0  0  0
    7.9253   -6.0023    0.0000 N   0  0  0  0  0  0  0  0  0  0  0  0
    7.3733   -6.6154    0.0000 C   0  0  0  0  0  0  0  0  0  0  0  0
  8  9  1  0  0  0  0
 17 20  1  0  0  0  0
  9 12  2  0  0  0  0
 20 21  2  0  0  0  0
  4 31  1  0  0  0  0
 20 22  1  0  0  0  0
 11 10  2  0  0  0  0
 13 23  1  0  0  0  0
 10  7  1  0  0  0  0
 23 24  1  0  0  0  0
 11 12  1  0  0  0  0
 24 25  2  0  0  0  0
  1  2  2  0  0  0  0
 25 26  1  0  0  0  0
  2  5  1  0  0  0  0
 26 27  2  0  0  0  0
 30  1  1  0  0  0  0
 27 28  1  0  0  0  0
  5  6  1  0  0  0  0
 28 29  2  0  0  0  0
 29 24  1  0  0  0  0
  2  3  1  0  0  0  0
 12 13  1  0  0  0  0
 30 31  2  0  0  0  0
 13 14  1  0  0  0  0
 15 32  1  0  0  0  0
 14 15  2  0  0  0  0
 32 33  1  0  0  0  0
 15 11  1  0  0  0  0
 33 34  1  0  0  0  0
  6  7  1  0  0  0  0
 33 35  1  0  0  0  0
 14 16  1  0  0  0  0
 33 36  1  0  0  0  0
 27 37  1  0  0  0  0
 16 17  1  0  0  0  0
 37 38  2  0  0  0  0
  7  8  2  0  0  0  0
 38 39  1  0  0  0  0
 17 18  1  0  0  0  0
 39 40  2  0  0  0  0
  3  4  2  0  0  0  0
 40 41  1  0  0  0  0
 17 19  1  0  0  0  0
 41 42  2  0  0  0  0
 42 37  1  0  0  0  0
M  END
>  <Mol Weight>
580.74

>  <Formula>
C34H36N4O3S

>  <chembl_id>
CHEMBL541967

$$$$

  Mrv0541 06201412482D          

 42 47  0  0  1  0            999 V2000
    1.3263   -1.1261    0.0000 C   0  0  0  0  0  0  0  0  0  0  0  0
    2.2564   -2.0812    0.0000 N   0  0  0  0  0  0  0  0  0  0  0  0
    1.4431   -1.9436    0.0000 C   0  0  0  0  0  0  0  0  0  0  0  0
    2.0687   -0.7632    0.0000 N   0  0  0  0  0  0  0  0  0  0  0  0
    2.6443   -1.3638    0.0000 C   0  0  0  0  0  0  0  0  0  0  0  0
    5.8098   -1.5807    0.0000 C   0  0  0  0  0  0  0  0  0  0  0  0
    5.1049   -1.1553    0.0000 C   0  0  1  0  0  0  0  0  0  0  0  0
    0.6131   -0.7132    0.0000 C   0  0  0  0  0  0  0  0  0  0  0  0
   -0.1084   -1.1261    0.0000 N   0  0  0  0  0  0  0  0  0  0  0  0
    3.4575   -1.2930    0.0000 C   0  0  2  0  0  0  0  0  0  0  0  0
   -0.8216   -0.7132    0.0000 C   0  0  0  0  0  0  0  0  0  0  0  0
    6.5355   -1.1803    0.0000 N   0  0  0  0  0  0  0  0  0  0  0  0
    3.9288   -1.9686    0.0000 O   0  0  0  0  0  0  0  0  0  0  0  0
    3.8079   -0.5422    0.0000 O   0  0  0  0  0  0  0  0  0  0  0  0
    0.8801   -2.5442    0.0000 C   0  0  0  0  0  0  0  0  0  0  0  0
    4.6337   -0.4755    0.0000 C   0  0  0  0  0  0  0  0  0  0  0  0
    4.7588   -1.9060    0.0000 C   0  0  0  0  0  0  0  0  0  0  0  0
   -0.8216    0.1126    0.0000 N   0  0  0  0  0  0  0  0  0  0  0  0
   -1.5390   -1.1386    0.0000 N   0  0  0  0  0  0  0  0  0  0  0  0
    5.7931   -2.4190    0.0000 O   0  0  0  0  0  0  0  0  0  0  0  0
    7.9744   -0.3629    0.0000 O   0  0  0  0  0  0  0  0  0  0  0  0
    0.0793   -2.3565    0.0000 C   0  0  0  0  0  0  0  0  0  0  0  0
    1.1136   -3.3282    0.0000 C   0  0  0  0  0  0  0  0  0  0  0  0
    0.6131    0.1209    0.0000 C   0  0  0  0  0  0  0  0  0  0  0  0
   -0.1084    0.5338    0.0000 C   0  0  0  0  0  0  0  0  0  0  0  0
   -2.2605   -0.7299    0.0000 C   0  0  0  0  0  0  0  0  0  0  0  0
   -0.2460   -3.7411    0.0000 C   0  0  0  0  0  0  0  0  0  0  0  0
   -2.2980    1.7350    0.0000 C   0  0  0  0  0  0  0  0  0  0  0  0
   -2.2730    0.0876    0.0000 C   0  0  0  0  0  0  0  0  0  0  0  0
   -0.4838   -2.9571    0.0000 C   0  0  0  0  0  0  0  0  0  0  0  0
    0.5422   -3.9288    0.0000 C   0  0  0  0  0  0  0  0  0  0  0  0
    5.5346   -0.4421    0.0000 C   0  0  0  0  0  0  0  0  0  0  0  0
   -0.8091   -4.3459    0.0000 F   0  0  0  0  0  0  0  0  0  0  0  0
   -2.3105    2.5608    0.0000 F   0  0  0  0  0  0  0  0  0  0  0  0
   -3.0112    1.3013    0.0000 C   0  0  0  0  0  0  0  0  0  0  0  0
   -1.5765    1.3346    0.0000 C   0  0  0  0  0  0  0  0  0  0  0  0
   -2.9904    0.4838    0.0000 C   0  0  0  0  0  0  0  0  0  0  0  0
   -1.5640    0.5088    0.0000 C   0  0  0  0  0  0  0  0  0  0  0  0
    6.5480   -0.3545    0.0000 C   0  0  0  0  0  0  0  0  0  0  0  0
    7.2445   -1.6016    0.0000 C   0  0  0  0  0  0  0  0  0  0  0  0
    7.9619   -1.1929    0.0000 C   0  0  0  0  0  0  0  0  0  0  0  0
    7.2612    0.0584    0.0000 C   0  0  0  0  0  0  0  0  0  0  0  0
  2  3  1  0  0  0  0
  3  1  2  0  0  0  0
  4  1  1  0  0  0  0
  5  4  1  0  0  0  0
  7  6  1  6  0  0  0
  7 16  1  0  0  0  0
  8  1  1  0  0  0  0
  9  8  2  0  0  0  0
 10  5  1  1  0  0  0
 11  9  1  0  0  0  0
 12  6  1  0  0  0  0
 13 10  1  0  0  0  0
 14 10  1  0  0  0  0
 15  3  1  0  0  0  0
 16 14  1  0  0  0  0
 17 13  1  0  0  0  0
 18 25  1  0  0  0  0
 19 11  1  0  0  0  0
 20  6  2  0  0  0  0
 21 41  1  0  0  0  0
 22 15  2  0  0  0  0
 23 15  1  0  0  0  0
 24  8  1  0  0  0  0
 25 24  2  0  0  0  0
 26 19  1  0  0  0  0
 27 31  1  0  0  0  0
 28 36  2  0  0  0  0
 29 26  1  0  0  0  0
 30 22  1  0  0  0  0
 31 23  2  0  0  0  0
  7 32  1  1  0  0  0
 33 27  1  0  0  0  0
 34 28  1  0  0  0  0
 35 37  2  0  0  0  0
 36 38  1  0  0  0  0
 37 29  1  0  0  0  0
 38 29  2  0  0  0  0
 39 12  1  0  0  0  0
 40 12  1  0  0  0  0
 41 40  1  0  0  0  0
 42 39  1  0  0  0  0
  5  2  2  0  0  0  0
 11 18  2  0  0  0  0
 27 30  2  0  0  0  0
  7 17  1  0  0  0  0
 28 35  1  0  0  0  0
 21 42  1  0  0  0  0
M  END
>  <Mol Weight>
576.5938

>  <Formula>
C30H30F2N6O4

>  <chembl_id>
CHEMBL159567

$$$$

  Mrv0541 06201412482D          

 43 47  0  0  0  0            999 V2000
    5.5111   -5.7291    0.0000 C   0  0  0  0  0  0  0  0  0  0  0  0
    5.5099   -6.5565    0.0000 C   0  0  0  0  0  0  0  0  0  0  0  0
    6.2247   -6.9694    0.0000 C   0  0  0  0  0  0  0  0  0  0  0  0
    6.2229   -5.3164    0.0000 C   0  0  0  0  0  0  0  0  0  0  0  0
    6.9383   -5.7255    0.0000 C   0  0  0  0  0  0  0  0  0  0  0  0
    6.9371   -6.5586    0.0000 C   0  0  0  0  0  0  0  0  0  0  0  0
    7.6540   -6.9738    0.0000 C   0  0  0  0  0  0  0  0  0  0  0  0
    8.3767   -6.5606    0.0000 C   0  0  0  0  0  0  0  0  0  0  0  0
    8.3779   -5.7276    0.0000 C   0  0  0  0  0  0  0  0  0  0  0  0
    7.6564   -5.3077    0.0000 O   0  0  0  0  0  0  0  0  0  0  0  0
    9.0933   -5.3168    0.0000 C   0  0  0  0  0  0  0  0  0  0  0  0
    9.8054   -5.7354    0.0000 C   0  0  0  0  0  0  0  0  0  0  0  0
   10.5204   -5.3253    0.0000 C   0  0  0  0  0  0  0  0  0  0  0  0
   10.5228   -4.4994    0.0000 C   0  0  0  0  0  0  0  0  0  0  0  0
    9.8043   -4.0853    0.0000 C   0  0  0  0  0  0  0  0  0  0  0  0
    9.0923   -4.4978    0.0000 C   0  0  0  0  0  0  0  0  0  0  0  0
   11.2378   -4.0877    0.0000 O   0  0  0  0  0  0  0  0  0  0  0  0
   11.2336   -5.7399    0.0000 O   0  0  0  0  0  0  0  0  0  0  0  0
    9.0900   -6.9752    0.0000 O   0  0  0  0  0  0  0  0  0  0  0  0
    7.6517   -7.7988    0.0000 O   0  0  0  0  0  0  0  0  0  0  0  0
    6.2244   -7.7944    0.0000 O   0  0  0  0  0  0  0  0  0  0  0  0
    4.7965   -5.3168    0.0000 O   0  0  0  0  0  0  0  0  0  0  0  0
    9.0876   -7.8001    0.0000 C   0  0  0  0  0  0  0  0  0  0  0  0
    9.8010   -8.2147    0.0000 C   0  0  1  0  0  0  0  0  0  0  0  0
    8.3720   -8.2106    0.0000 O   0  0  0  0  0  0  0  0  0  0  0  0
   10.5166   -7.8042    0.0000 N   0  0  0  0  0  0  0  0  0  0  0  0
   11.2299   -8.2187    0.0000 C   0  0  0  0  0  0  0  0  0  0  0  0
   11.9455   -7.8082    0.0000 O   0  0  0  0  0  0  0  0  0  0  0  0
   11.2276   -9.0437    0.0000 O   0  0  0  0  0  0  0  0  0  0  0  0
   12.6588   -8.2227    0.0000 C   0  0  0  0  0  0  0  0  0  0  0  0
   13.3708   -8.6333    0.0000 C   0  0  0  0  0  0  0  0  0  0  0  0
   12.2455   -8.9367    0.0000 C   0  0  0  0  0  0  0  0  0  0  0  0
   13.0748   -7.5103    0.0000 C   0  0  0  0  0  0  0  0  0  0  0  0
    9.7986   -9.0397    0.0000 C   0  0  0  0  0  0  0  0  0  0  0  0
    9.0830   -9.4501    0.0000 C   0  0  0  0  0  0  0  0  0  0  0  0
    8.3341   -9.1143    0.0000 C   0  0  0  0  0  0  0  0  0  0  0  0
    7.7803   -9.7259    0.0000 N   0  0  0  0  0  0  0  0  0  0  0  0
    8.9982  -10.2722    0.0000 C   0  0  0  0  0  0  0  0  0  0  0  0
    8.1922  -10.4395    0.0000 C   0  0  0  0  0  0  0  0  0  0  0  0
    7.9356  -11.2197    0.0000 C   0  0  0  0  0  0  0  0  0  0  0  0
    8.4840  -11.8334    0.0000 C   0  0  0  0  0  0  0  0  0  0  0  0
    9.2923  -11.6615    0.0000 C   0  0  0  0  0  0  0  0  0  0  0  0
    9.5452  -10.8815    0.0000 C   0  0  0  0  0  0  0  0  0  0  0  0
  8  9  2  0  0  0  0
  3 21  1  0  0  0  0
  9 10  1  0  0  0  0
  1 22  1  0  0  0  0
  5  6  1  0  0  0  0
 19 23  1  0  0  0  0
  9 11  1  0  0  0  0
 23 24  1  0  0  0  0
 23 25  2  0  0  0  0
 11 12  2  0  0  0  0
 24 26  1  0  0  0  0
  2  3  1  0  0  0  0
 26 27  1  0  0  0  0
 12 13  1  0  0  0  0
 27 28  1  0  0  0  0
  3  6  2  0  0  0  0
 27 29  2  0  0  0  0
 13 14  2  0  0  0  0
 28 30  1  0  0  0  0
  1  2  2  0  0  0  0
 30 31  1  0  0  0  0
 14 15  1  0  0  0  0
 30 32  1  0  0  0  0
  5  4  2  0  0  0  0
 30 33  1  0  0  0  0
 15 16  2  0  0  0  0
 24 34  1  1  0  0  0
 16 11  1  0  0  0  0
 34 35  1  0  0  0  0
 35 36  2  0  0  0  0
  4  1  1  0  0  0  0
 14 17  1  0  0  0  0
 36 37  1  0  0  0  0
 37 39  1  0  0  0  0
 38 35  1  0  0  0  0
  5 10  1  0  0  0  0
 13 18  1  0  0  0  0
 38 39  2  0  0  0  0
  6  7  1  0  0  0  0
 39 40  1  0  0  0  0
  8 19  1  0  0  0  0
 40 41  2  0  0  0  0
  7  8  1  0  0  0  0
 41 42  1  0  0  0  0
  7 20  2  0  0  0  0
 42 43  2  0  0  0  0
 43 38  1  0  0  0  0
M  END
>  <Mol Weight>
588.5614

>  <Formula>
C31H28N2O10

>  <chembl_id>
CHEMBL553645

$$$$

  Mrv0541 06201412482D          

 43 47  0  0  0  0            999 V2000
   19.1833  -15.2917    0.0000 C   0  0  0  0  0  0  0  0  0  0  0  0
   19.8958  -15.7042    0.0000 C   0  0  0  0  0  0  0  0  0  0  0  0
   20.6054  -15.2956    0.0000 C   0  0  0  0  0  0  0  0  0  0  0  0
   20.6086  -14.4730    0.0000 O   0  0  0  0  0  0  0  0  0  0  0  0
   19.8961  -14.0605    0.0000 C   0  0  0  0  0  0  0  0  0  0  0  0
   19.1804  -14.4706    0.0000 C   0  0  0  0  0  0  0  0  0  0  0  0
   10.0866  -14.2798    0.0000 C   0  0  0  0  0  0  0  0  0  0  0  0
    9.6015  -14.9501    0.0000 C   0  0  0  0  0  0  0  0  0  0  0  0
    9.9396  -15.7031    0.0000 C   0  0  0  0  0  0  0  0  0  0  0  0
   10.9054  -14.3616    0.0000 C   0  0  0  0  0  0  0  0  0  0  0  0
   11.2461  -15.1119    0.0000 C   0  0  0  0  0  0  0  0  0  0  0  0
   10.7638  -15.7887    0.0000 C   0  0  0  0  0  0  0  0  0  0  0  0
   11.2584  -16.4566    0.0000 N   0  0  0  0  0  0  0  0  0  0  0  0
   12.0388  -15.3616    0.0000 C   0  0  0  0  0  0  0  0  0  0  0  0
   12.0478  -16.1923    0.0000 C   0  0  0  0  0  0  0  0  0  0  0  0
   12.7678  -16.5977    0.0000 C   0  0  0  0  0  0  0  0  0  0  0  0
   13.4834  -16.1768    0.0000 C   0  0  0  0  0  0  0  0  0  0  0  0
   13.4744  -15.3460    0.0000 N   0  0  0  0  0  0  0  0  0  0  0  0
   12.7497  -14.9361    0.0000 C   0  0  0  0  0  0  0  0  0  0  0  0
   10.7946  -17.1394    0.0000 C   0  0  0  0  0  0  0  0  0  0  0  0
    9.9718  -17.0795    0.0000 C   0  0  0  0  0  0  0  0  0  0  0  0
    9.6162  -16.3382    0.0000 C   0  0  0  0  0  0  0  0  0  0  0  0
    8.7941  -16.2779    0.0000 C   0  0  0  0  0  0  0  0  0  0  0  0
    8.3299  -16.9610    0.0000 C   0  0  0  0  0  0  0  0  0  0  0  0
    8.6936  -17.7063    0.0000 C   0  0  0  0  0  0  0  0  0  0  0  0
    9.5146  -17.7629    0.0000 C   0  0  0  0  0  0  0  0  0  0  0  0
   11.1541  -17.8820    0.0000 O   0  0  0  0  0  0  0  0  0  0  0  0
    9.7483  -13.5273    0.0000 O   0  0  0  0  0  0  0  0  0  0  0  0
   10.2309  -12.8581    0.0000 C   0  0  0  0  0  0  0  0  0  0  0  0
   14.1847  -14.9265    0.0000 C   0  0  0  0  0  0  0  0  0  0  0  0
   14.9032  -15.3319    0.0000 C   0  0  0  0  0  0  0  0  0  0  0  0
   15.6136  -14.9124    0.0000 C   0  0  0  0  0  0  0  0  0  0  0  0
   16.3321  -15.3179    0.0000 O   0  0  0  0  0  0  0  0  0  0  0  0
   17.0425  -14.8984    0.0000 C   0  0  0  0  0  0  0  0  0  0  0  0
   17.7579  -15.3062    0.0000 C   0  0  0  0  0  0  0  0  0  0  0  0
   18.4678  -14.8874    0.0000 C   0  0  0  0  0  0  0  0  0  0  0  0
   18.4602  -14.0616    0.0000 C   0  0  0  0  0  0  0  0  0  0  0  0
   17.7366  -13.6563    0.0000 C   0  0  0  0  0  0  0  0  0  0  0  0
   17.0297  -14.0775    0.0000 C   0  0  0  0  0  0  0  0  0  0  0  0
   17.7256  -12.8314    0.0000 F   0  0  0  0  0  0  0  0  0  0  0  0
   19.1894  -16.1166    0.0000 O   0  0  0  0  0  0  0  0  0  0  0  0
   18.4779  -16.5344    0.0000 C   0  0  0  0  0  0  0  0  0  0  0  0
   19.3572  -12.9812    0.0000 Cl  0  0  0  0  0  0  0  0  0  0  0  0
 13 20  1  0  0  0  0
 11 10  2  0  0  0  0
 20 21  1  0  0  0  0
 10  7  1  0  0  0  0
 21 22  2  0  0  0  0
 11 12  1  0  0  0  0
 22 23  1  0  0  0  0
  3  4  1  0  0  0  0
 23 24  2  0  0  0  0
  4  5  1  0  0  0  0
 24 25  1  0  0  0  0
  5  6  1  0  0  0  0
 25 26  2  0  0  0  0
 26 21  1  0  0  0  0
 12 13  1  0  0  0  0
 20 27  2  0  0  0  0
 13 15  1  0  0  0  0
  7 28  1  0  0  0  0
 14 11  1  0  0  0  0
 28 29  1  0  0  0  0
 14 15  2  0  0  0  0
 18 30  1  0  0  0  0
 30 31  1  0  0  0  0
  1  2  1  0  0  0  0
 31 32  1  0  0  0  0
  7  8  2  0  0  0  0
 32 33  1  0  0  0  0
  1  6  1  0  0  0  0
 33 34  1  0  0  0  0
  8  9  1  0  0  0  0
 34 35  2  0  0  0  0
  9 12  2  0  0  0  0
 35 36  1  0  0  0  0
 14 19  1  0  0  0  0
 36 37  2  0  0  0  0
 15 16  1  0  0  0  0
 37 38  1  0  0  0  0
 16 17  1  0  0  0  0
 38 39  2  0  0  0  0
 39 34  1  0  0  0  0
 17 18  1  0  0  0  0
 38 40  1  0  0  0  0
 36  1  1  0  0  0  0
 18 19  1  0  0  0  0
  1 41  1  0  0  0  0
  2  3  1  0  0  0  0
 41 42  1  0  0  0  0
M  END
>  <Mol Weight>
609.127

>  <Formula>
C34H38ClFN2O5

>  <chembl_id>
CHEMBL1163237

$$$$

  Mrv0541 06201412482D          

 42 46  0  0  0  0            999 V2000
    0.0000   -0.3899    0.0000 C   0  0  0  0  0  0  0  0  0  0  0  0
    0.0000    0.3973    0.0000 C   0  0  0  0  0  0  0  0  0  0  0  0
    0.7123   -0.8172    0.0000 C   0  0  2  0  0  0  0  0  0  0  0  0
    1.4320   -0.3899    0.0000 C   0  0  2  0  0  0  0  0  0  0  0  0
    1.4320    0.3973    0.0000 C   0  0  0  0  0  0  0  0  0  0  0  0
    0.7123    0.8247    0.0000 C   0  0  2  0  0  0  0  0  0  0  0  0
    0.7104   -1.6424    0.0000 C   0  0  0  0  0  0  0  0  0  0  0  0
    2.2193   -0.6673    0.0000 C   0  0  0  0  0  0  0  0  0  0  0  0
   -0.7123   -0.8172    0.0000 C   0  0  0  0  0  0  0  0  0  0  0  0
   -0.7123    0.8247    0.0000 C   0  0  0  0  0  0  0  0  0  0  0  0
    0.6867   -3.2917    0.0000 C   0  0  0  0  0  0  0  0  0  0  0  0
    2.7066    0.0000    0.0000 O   0  0  0  0  0  0  0  0  0  0  0  0
    1.4068   -2.8894    0.0000 C   0  0  0  0  0  0  0  0  0  0  0  0
   -0.0217   -2.8692    0.0000 C   0  0  0  0  0  0  0  0  0  0  0  0
    2.2193    0.6673    0.0000 C   0  0  0  0  0  0  0  0  0  0  0  0
   -1.4320    0.3973    0.0000 C   0  0  0  0  0  0  0  0  0  0  0  0
   -1.4320   -0.3899    0.0000 C   0  0  0  0  0  0  0  0  0  0  0  0
    1.4185   -2.0647    0.0000 C   0  0  0  0  0  0  0  0  0  0  0  0
   -0.0100   -2.0444    0.0000 C   0  0  0  0  0  0  0  0  0  0  0  0
    0.7070    1.6497    0.0000 C   0  0  0  0  0  0  0  0  0  0  0  0
   -0.0101    2.0582    0.0000 C   0  0  0  0  0  0  0  0  0  0  0  0
   -1.4549    4.5257    0.0000 N   0  0  0  0  0  0  0  0  0  0  0  0
   -2.2193    0.6673    0.0000 O   0  0  0  0  0  0  0  0  0  0  0  0
   -2.2193   -0.6673    0.0000 O   0  0  0  0  0  0  0  0  0  0  0  0
   -2.7066    0.0000    0.0000 C   0  0  0  0  0  0  0  0  0  0  0  0
    2.4146   -1.2975    0.0000 O   0  0  0  0  0  0  0  0  0  0  0  0
   -0.5795    1.7247    0.0000 O   0  0  0  0  0  0  0  0  0  0  0  0
   -0.0154    2.8835    0.0000 N   0  0  0  0  0  0  0  0  0  0  0  0
    0.6773   -3.9515    0.0000 O   0  0  0  0  0  0  0  0  0  0  0  0
    2.1164   -3.3108    0.0000 O   0  0  0  0  0  0  0  0  0  0  0  0
   -0.7431   -3.2702    0.0000 O   0  0  0  0  0  0  0  0  0  0  0  0
    4.2110    0.8202    0.0000 Cl  0  0  0  0  0  0  0  0  0  0  0  0
   -0.7325    3.2919    0.0000 C   0  0  0  0  0  0  0  0  0  0  0  0
   -0.7378    4.1172    0.0000 C   0  0  0  0  0  0  0  0  0  0  0  0
   -1.4614    5.3505    0.0000 C   0  0  0  0  0  0  0  0  0  0  0  0
   -2.1660    4.1077    0.0000 C   0  0  0  0  0  0  0  0  0  0  0  0
   -1.3093   -2.9313    0.0000 C   0  0  0  0  0  0  0  0  0  0  0  0
    2.6920   -2.9882    0.0000 C   0  0  0  0  0  0  0  0  0  0  0  0
   -2.8835    4.5145    0.0000 C   0  0  0  0  0  0  0  0  0  0  0  0
   -2.1789    5.7573    0.0000 C   0  0  0  0  0  0  0  0  0  0  0  0
   -2.8899    5.3393    0.0000 C   0  0  0  0  0  0  0  0  0  0  0  0
    1.4861   -0.9371    0.0000 H   0  0  0  0  0  0  0  0  0  0  0  0
  1  2  1  0  0  0  0
  1  3  1  0  0  0  0
  3  4  1  0  0  0  0
  4  5  1  0  0  0  0
  2  6  1  0  0  0  0
  5  6  1  0  0  0  0
  3  7  1  6  0  0  0
  4  8  1  0  0  0  0
  1  9  2  0  0  0  0
  2 10  2  0  0  0  0
  8 12  1  0  0  0  0
 11 13  2  0  0  0  0
 11 14  1  0  0  0  0
  5 15  1  0  0  0  0
 12 15  1  0  0  0  0
 10 16  1  0  0  0  0
  9 17  1  0  0  0  0
 16 17  2  0  0  0  0
  7 18  2  0  0  0  0
 13 18  1  0  0  0  0
  7 19  1  0  0  0  0
 14 19  2  0  0  0  0
  6 20  1  1  0  0  0
 20 21  1  0  0  0  0
 16 23  1  0  0  0  0
 17 24  1  0  0  0  0
 23 25  1  0  0  0  0
 24 25  1  0  0  0  0
  8 26  2  0  0  0  0
 21 27  2  0  0  0  0
 21 28  1  0  0  0  0
 11 29  1  0  0  0  0
 13 30  1  0  0  0  0
 14 31  1  0  0  0  0
 28 33  1  0  0  0  0
 22 34  1  0  0  0  0
 33 34  1  0  0  0  0
 22 35  1  0  0  0  0
 22 36  1  0  0  0  0
 31 37  1  0  0  0  0
 30 38  1  0  0  0  0
 36 39  1  0  0  0  0
 35 40  1  0  0  0  0
 39 41  1  0  0  0  0
 40 41  1  0  0  0  0
  4 42  1  1  0  0  0
M  END
>  <Mol Weight>
589.076

>  <Formula>
C30H37ClN2O8

>  <chembl_id>
CHEMBL553647

$$$$

  Mrv0541 06201412482D          

 43 48  0  0  0  0            999 V2000
   11.3727   -5.5160    0.0000 C   0  0  0  0  0  0  0  0  0  0  0  0
   10.6634   -5.9380    0.0000 C   0  0  0  0  0  0  0  0  0  0  0  0
   10.6729   -6.7633    0.0000 C   0  0  0  0  0  0  0  0  0  0  0  0
   11.3916   -7.1665    0.0000 C   0  0  0  0  0  0  0  0  0  0  0  0
   12.0914   -5.9192    0.0000 C   0  0  0  0  0  0  0  0  0  0  0  0
   12.1032   -6.7443    0.0000 C   0  0  0  0  0  0  0  0  0  0  0  0
   12.8914   -6.9881    0.0000 C   0  0  0  0  0  0  0  0  0  0  0  0
   13.3670   -6.3138    0.0000 C   0  0  0  0  0  0  0  0  0  0  0  0
   12.8725   -5.6532    0.0000 S   0  0  0  0  0  0  0  0  0  0  0  0
    9.9497   -7.1584    0.0000 N   0  0  0  0  0  0  0  0  0  0  0  0
    9.8896   -9.6301    0.0000 N   0  0  0  0  0  0  0  0  0  0  0  0
   10.6131   -9.2355    0.0000 C   0  0  0  0  0  0  0  0  0  0  0  0
   10.6345   -8.4141    0.0000 N   0  0  0  0  0  0  0  0  0  0  0  0
    9.9303   -7.9835    0.0000 C   0  0  0  0  0  0  0  0  0  0  0  0
    9.2068   -8.3781    0.0000 C   0  0  0  0  0  0  0  0  0  0  0  0
    8.5027   -7.9476    0.0000 C   0  0  0  0  0  0  0  0  0  0  0  0
    7.7792   -8.3421    0.0000 C   0  0  0  0  0  0  0  0  0  0  0  0
    7.7598   -9.1672    0.0000 C   0  0  0  0  0  0  0  0  0  0  0  0
    8.4639   -9.5977    0.0000 C   0  0  0  0  0  0  0  0  0  0  0  0
    9.1874   -9.2031    0.0000 C   0  0  0  0  0  0  0  0  0  0  0  0
    7.0750   -7.9115    0.0000 O   0  0  0  0  0  0  0  0  0  0  0  0
    6.3515   -8.3061    0.0000 C   0  0  0  0  0  0  0  0  0  0  0  0
    5.6494   -7.8793    0.0000 C   0  0  0  0  0  0  0  0  0  0  0  0
    4.9259   -8.2738    0.0000 C   0  0  0  0  0  0  0  0  0  0  0  0
    4.2218   -7.8433    0.0000 N   0  0  0  0  0  0  0  0  0  0  0  0
    7.0363   -9.5617    0.0000 O   0  0  0  0  0  0  0  0  0  0  0  0
    7.0169  -10.3868    0.0000 C   0  0  0  0  0  0  0  0  0  0  0  0
   14.1919   -6.3013    0.0000 C   0  0  0  0  0  0  0  0  0  0  0  0
   14.6141   -7.0090    0.0000 O   0  0  0  0  0  0  0  0  0  0  0  0
   14.5938   -5.5817    0.0000 O   0  0  0  0  0  0  0  0  0  0  0  0
   15.4381   -6.9973    0.0000 C   0  0  0  0  0  0  0  0  0  0  0  0
   15.8603   -7.7050    0.0000 C   0  0  0  0  0  0  0  0  0  0  0  0
    4.2460   -7.0193    0.0000 C   0  0  0  0  0  0  0  0  0  0  0  0
    3.5460   -6.5890    0.0000 C   0  0  0  0  0  0  0  0  0  0  0  0
    2.8187   -6.9799    0.0000 N   0  0  0  0  0  0  0  0  0  0  0  0
    2.7960   -7.8058    0.0000 C   0  0  0  0  0  0  0  0  0  0  0  0
    3.5004   -8.2409    0.0000 C   0  0  0  0  0  0  0  0  0  0  0  0
    2.1173   -6.5474    0.0000 C   0  0  0  0  0  0  0  0  0  0  0  0
    2.1427   -5.7229    0.0000 C   0  0  0  0  0  0  0  0  0  0  0  0
    1.4420   -5.2904    0.0000 C   0  0  0  0  0  0  0  0  0  0  0  0
    0.7157   -5.6816    0.0000 C   0  0  0  0  0  0  0  0  0  0  0  0
    0.6943   -6.5097    0.0000 C   0  0  0  0  0  0  0  0  0  0  0  0
    1.3957   -6.9385    0.0000 C   0  0  0  0  0  0  0  0  0  0  0  0
 16 17  2  0  0  0  0
 17 18  1  0  0  0  0
 18 19  2  0  0  0  0
 19 20  1  0  0  0  0
 11 20  2  0  0  0  0
 15 20  1  0  0  0  0
 22 23  1  0  0  0  0
 23 24  1  0  0  0  0
 21 22  1  0  0  0  0
 24 25  1  0  0  0  0
 17 21  1  0  0  0  0
 26 27  1  0  0  0  0
 18 26  1  0  0  0  0
 10 14  1  0  0  0  0
 10  3  1  0  0  0  0
  6  7  1  0  0  0  0
  7  8  2  0  0  0  0
  8  9  1  0  0  0  0
 28 29  1  0  0  0  0
 28 30  2  0  0  0  0
  8 28  1  0  0  0  0
  9  5  1  0  0  0  0
 29 31  1  0  0  0  0
  5  1  2  0  0  0  0
 31 32  1  0  0  0  0
 25 33  1  0  0  0  0
  5  6  1  0  0  0  0
  1  2  1  0  0  0  0
  2  3  2  0  0  0  0
  3  4  1  0  0  0  0
 25 37  1  0  0  0  0
 33 34  1  0  0  0  0
 34 35  1  0  0  0  0
 35 36  1  0  0  0  0
 36 37  1  0  0  0  0
  6  4  2  0  0  0  0
 35 38  1  0  0  0  0
 11 12  1  0  0  0  0
 38 39  2  0  0  0  0
 12 13  2  0  0  0  0
 39 40  1  0  0  0  0
 13 14  1  0  0  0  0
 40 41  2  0  0  0  0
 14 15  2  0  0  0  0
 41 42  1  0  0  0  0
 15 16  1  0  0  0  0
 42 43  2  0  0  0  0
 43 38  1  0  0  0  0
M  END
>  <Mol Weight>
597.727

>  <Formula>
C33H35N5O4S

>  <chembl_id>
CHEMBL1163214

$$$$

  Mrv0541 06201412482D          

 44 48  0  0  0  0            999 V2000
   -2.7264  -22.7083    0.0000 C   0  0  0  0  0  0  0  0  0  0  0  0
   -2.7276  -23.5357    0.0000 C   0  0  0  0  0  0  0  0  0  0  0  0
   -2.0128  -23.9485    0.0000 C   0  0  0  0  0  0  0  0  0  0  0  0
   -2.0146  -22.2955    0.0000 C   0  0  0  0  0  0  0  0  0  0  0  0
   -2.0170  -21.4705    0.0000 O   0  0  0  0  0  0  0  0  0  0  0  0
   -1.3038  -21.0559    0.0000 C   0  0  0  0  0  0  0  0  0  0  0  0
   -3.4410  -22.2960    0.0000 C   0  0  0  0  0  0  0  0  0  0  0  0
   -3.4424  -23.9476    0.0000 O   0  0  0  0  0  0  0  0  0  0  0  0
   -4.1565  -23.5345    0.0000 C   0  0  0  0  0  0  0  0  0  0  0  0
   -2.0130  -24.7735    0.0000 O   0  0  0  0  0  0  0  0  0  0  0  0
   -2.7275  -25.1859    0.0000 C   0  0  0  0  0  0  0  0  0  0  0  0
   -1.2992  -22.7047    0.0000 C   0  0  0  0  0  0  0  0  0  0  0  0
   -1.2958  -23.5377    0.0000 C   0  0  0  0  0  0  0  0  0  0  0  0
   -0.5766  -23.9490    0.0000 C   0  0  1  0  0  0  0  0  0  0  0  0
   -0.5834  -22.2829    0.0000 C   0  0  0  0  0  0  0  0  0  0  0  0
    0.1404  -22.6988    0.0000 C   0  0  2  0  0  0  0  0  0  0  0  0
    0.1414  -23.5335    0.0000 N   0  0  0  0  0  0  0  0  0  0  0  0
    0.8609  -23.9476    0.0000 C   0  0  1  0  0  0  0  0  0  0  0  0
    1.5839  -23.5317    0.0000 C   0  0  0  0  0  0  0  0  0  0  0  0
    1.5828  -22.6969    0.0000 N   0  0  0  0  0  0  0  0  0  0  0  0
    0.8588  -22.2782    0.0000 C   0  0  0  0  0  0  0  0  0  0  0  0
    0.1333  -21.8708    0.0000 H   0  0  0  0  0  0  0  0  0  0  0  0
    2.2972  -22.2842    0.0000 C   0  0  0  0  0  0  0  0  0  0  0  0
    3.0118  -22.6965    0.0000 O   0  0  0  0  0  0  0  0  0  0  0  0
    2.2970  -21.4592    0.0000 O   0  0  0  0  0  0  0  0  0  0  0  0
    3.0120  -23.5215    0.0000 C   0  0  0  0  0  0  0  0  0  0  0  0
    3.7266  -23.9338    0.0000 C   0  0  0  0  0  0  0  0  0  0  0  0
    2.2976  -23.9342    0.0000 C   0  0  0  0  0  0  0  0  0  0  0  0
   -0.5745  -24.7740    0.0000 C   0  0  0  0  0  0  0  0  0  0  0  0
    0.1411  -25.1847    0.0000 O   0  0  0  0  0  0  0  0  0  0  0  0
    0.8628  -24.7699    0.0000 C   0  0  0  0  0  0  0  0  0  0  0  0
    0.8627  -25.5949    0.0000 N   0  0  0  0  0  0  0  0  0  0  0  0
    0.1432  -26.0097    0.0000 C   0  0  0  0  0  0  0  0  0  0  0  0
    0.8587  -26.4204    0.0000 C   0  0  0  0  0  0  0  0  0  0  0  0
   -0.5702  -26.4240    0.0000 O   0  0  0  0  0  0  0  0  0  0  0  0
    2.2867  -27.2390    0.0000 C   0  0  0  0  0  0  0  0  0  0  0  0
    2.2820  -26.4097    0.0000 C   0  0  0  0  0  0  0  0  0  0  0  0
    1.5667  -26.0028    0.0000 C   0  0  0  0  0  0  0  0  0  0  0  0
    1.5723  -27.6533    0.0000 C   0  0  0  0  0  0  0  0  0  0  0  0
    0.8611  -27.2426    0.0000 C   0  0  0  0  0  0  0  0  0  0  0  0
    0.1519  -27.6530    0.0000 C   0  0  0  0  0  0  0  0  0  0  0  0
    0.1526  -28.4741    0.0000 C   0  0  0  0  0  0  0  0  0  0  0  0
    0.8686  -28.8830    0.0000 C   0  0  0  0  0  0  0  0  0  0  0  0
    1.5749  -28.4702    0.0000 C   0  0  0  0  0  0  0  0  0  0  0  0
 20 21  1  0  0  0  0
  3 10  1  0  0  0  0
 16 22  1  6  0  0  0
 20 23  1  0  0  0  0
 10 11  1  0  0  0  0
 23 24  1  0  0  0  0
 12 13  1  0  0  0  0
 23 25  2  0  0  0  0
  4  5  1  0  0  0  0
 24 26  1  0  0  0  0
  2  3  1  0  0  0  0
 26 27  1  0  0  0  0
  5  6  1  0  0  0  0
 26 28  1  0  0  0  0
  3 13  2  0  0  0  0
 14 29  1  1  0  0  0
 12 15  1  0  0  0  0
 29 30  1  0  0  0  0
 13 14  1  0  0  0  0
 14 17  1  0  0  0  0
 31 32  3  0  0  0  0
 18 31  1  1  0  0  0
 16 15  1  0  0  0  0
 30 33  1  0  0  0  0
 16 17  1  0  0  0  0
 33 34  1  0  0  0  0
  1  7  1  0  0  0  0
 33 35  2  0  0  0  0
 34 40  2  0  0  0  0
  1  2  2  0  0  0  0
 39 36  2  0  0  0  0
  2  8  1  0  0  0  0
 36 37  1  0  0  0  0
 12  4  2  0  0  0  0
 37 38  2  0  0  0  0
 38 34  1  0  0  0  0
  8  9  1  0  0  0  0
  4  1  1  0  0  0  0
 39 40  1  0  0  0  0
 16 21  1  0  0  0  0
 40 41  1  0  0  0  0
 17 18  1  0  0  0  0
 41 42  2  0  0  0  0
 18 19  1  0  0  0  0
 42 43  1  0  0  0  0
 19 20  1  0  0  0  0
 43 44  2  0  0  0  0
 44 39  1  0  0  0  0
M  END
>  <Mol Weight>
587.6628

>  <Formula>
C33H37N3O7

>  <chembl_id>
CHEMBL593676

$$$$

  Mrv0541 06201412482D          

 43 44  0  0  0  0            999 V2000
   -1.1508   -7.8680    0.0000 C   0  0  0  0  0  0  0  0  0  0  0  0
   -1.9210   -6.6608    0.0000 N   0  0  0  0  0  0  0  0  0  0  0  0
   -1.8873   -7.4914    0.0000 N   0  0  0  0  0  0  0  0  0  0  0  0
   -2.5833   -7.9373    0.0000 C   0  0  0  0  0  0  0  0  0  0  0  0
   -2.5697   -8.7539    0.0000 C   0  0  0  0  0  0  0  0  0  0  0  0
   -3.2757   -9.1746    0.0000 O   0  0  0  0  0  0  0  0  0  0  0  0
   -1.8504   -9.1549    0.0000 N   0  0  0  0  0  0  0  0  0  0  0  0
   -1.1151   -8.6954    0.0000 O   0  0  0  0  0  0  0  0  0  0  0  0
   -0.4493   -7.4288    0.0000 C   0  0  0  0  0  0  0  0  0  0  0  0
    0.2762   -7.8100    0.0000 C   0  0  0  0  0  0  0  0  0  0  0  0
    0.9826   -7.3705    0.0000 C   0  0  0  0  0  0  0  0  0  0  0  0
    1.7081   -7.7481    0.0000 O   0  0  0  0  0  0  0  0  0  0  0  0
   -3.4073   -5.0555    0.0000 N   0  0  0  0  0  0  0  0  0  0  0  0
   -2.6739   -5.4385    0.0000 C   0  0  1  0  0  0  0  0  0  0  0  0
   -3.3360   -6.7154    0.0000 O   0  0  0  0  0  0  0  0  0  0  0  0
   -1.9792   -5.0016    0.0000 C   0  0  0  0  0  0  0  0  0  0  0  0
   -2.6466   -6.2754    0.0000 C   0  0  0  0  0  0  0  0  0  0  0  0
   -3.4421   -4.2313    0.0000 C   0  0  0  0  0  0  0  0  0  0  0  0
   -4.1734   -3.8494    0.0000 C   0  0  2  0  0  0  0  0  0  0  0  0
   -2.7458   -3.7890    0.0000 O   0  0  0  0  0  0  0  0  0  0  0  0
   -4.2082   -3.0252    0.0000 N   0  0  0  0  0  0  0  0  0  0  0  0
   -4.8697   -4.2917    0.0000 C   0  0  0  0  0  0  0  0  0  0  0  0
   -4.9198   -1.7784    0.0000 N   0  0  0  0  0  0  0  0  0  0  0  0
   -5.6317   -1.3637    0.0000 C   0  0  0  0  0  0  0  0  0  0  0  0
   -5.6297   -0.5365    0.0000 C   0  0  0  0  0  0  0  0  0  0  0  0
   -4.9138   -0.1274    0.0000 N   0  0  0  0  0  0  0  0  0  0  0  0
   -4.1969   -0.5435    0.0000 C   0  0  0  0  0  0  0  0  0  0  0  0
   -4.2040   -1.3691    0.0000 C   0  0  0  0  0  0  0  0  0  0  0  0
   -4.9182   -2.6119    0.0000 C   0  0  0  0  0  0  0  0  0  0  0  0
   -5.6446   -3.0272    0.0000 O   0  0  0  0  0  0  0  0  0  0  0  0
    0.9510   -6.5463    0.0000 O   0  0  0  0  0  0  0  0  0  0  0  0
    1.6492   -6.1067    0.0000 C   0  0  0  0  0  0  0  0  0  0  0  0
    1.6176   -5.2824    0.0000 C   0  0  0  0  0  0  0  0  0  0  0  0
   -4.9111    0.6976    0.0000 C   0  0  0  0  0  0  0  0  0  0  0  0
   -4.1954    1.1077    0.0000 O   0  0  0  0  0  0  0  0  0  0  0  0
   -5.6242    1.1123    0.0000 O   0  0  0  0  0  0  0  0  0  0  0  0
   -4.1927    1.9326    0.0000 C   0  0  0  0  0  0  0  0  0  0  0  0
   -3.4771    2.3428    0.0000 C   0  0  0  0  0  0  0  0  0  0  0  0
   -2.7598    1.9274    0.0000 C   0  0  0  0  0  0  0  0  0  0  0  0
   -2.0393    3.1593    0.0000 C   0  0  0  0  0  0  0  0  0  0  0  0
   -2.7523    3.5762    0.0000 C   0  0  0  0  0  0  0  0  0  0  0  0
   -2.0463    2.3340    0.0000 C   0  0  0  0  0  0  0  0  0  0  0  0
   -3.4721    3.1680    0.0000 C   0  0  0  0  0  0  0  0  0  0  0  0
 19 22  1  1  0  0  0
  5  6  2  0  0  0  0
  5  7  1  0  0  0  0
  1  8  2  0  0  0  0
  1  9  1  0  0  0  0
  9 10  2  0  0  0  0
 10 11  1  0  0  0  0
 11 12  2  0  0  0  0
 17  2  1  0  0  0  0
 23 24  1  0  0  0  0
 24 25  1  0  0  0  0
 25 26  1  0  0  0  0
 26 27  1  0  0  0  0
 27 28  1  0  0  0  0
 23 28  1  0  0  0  0
 23 29  1  0  0  0  0
 29 30  2  0  0  0  0
 29 21  1  0  0  0  0
 13 14  1  0  0  0  0
 11 31  1  0  0  0  0
 14 17  1  0  0  0  0
 31 32  1  0  0  0  0
 17 15  2  0  0  0  0
 32 33  1  0  0  0  0
 14 16  1  1  0  0  0
 26 34  1  0  0  0  0
 34 35  1  0  0  0  0
 13 18  1  0  0  0  0
 34 36  2  0  0  0  0
  2  3  1  0  0  0  0
 35 37  1  0  0  0  0
 18 19  1  0  0  0  0
 37 38  1  0  0  0  0
 38 39  2  0  0  0  0
  1  3  1  0  0  0  0
 40 41  1  0  0  0  0
 18 20  2  0  0  0  0
  3  4  1  0  0  0  0
 19 21  1  0  0  0  0
  4  5  1  0  0  0  0
 38 43  1  0  0  0  0
 39 42  1  0  0  0  0
 42 40  2  0  0  0  0
 41 43  2  0  0  0  0
M  END
>  <Mol Weight>
603.6242

>  <Formula>
C27H37N7O9

>  <chembl_id>
CHEMBL573437

$$$$

  Mrv0541 06201412482D          

 43 50  0  0  0  0            999 V2000
   -0.7158   -5.2806    0.0000 C   0  0  0  0  0  0  0  0  0  0  0  0
   -1.5004   -5.5355    0.0000 C   0  0  0  0  0  0  0  0  0  0  0  0
   -2.1135   -4.9835    0.0000 C   0  0  0  0  0  0  0  0  0  0  0  0
   -0.5443   -4.4736    0.0000 C   0  0  0  0  0  0  0  0  0  0  0  0
   -1.1574   -3.9216    0.0000 C   0  0  0  0  0  0  0  0  0  0  0  0
   -1.9420   -4.1765    0.0000 C   0  0  0  0  0  0  0  0  0  0  0  0
   -2.5551   -3.6245    0.0000 N   0  0  0  0  0  0  0  0  0  0  0  0
   -0.9858   -3.1146    0.0000 N   0  0  0  0  0  0  0  0  0  0  0  0
   -1.5989   -2.5626    0.0000 C   0  0  0  0  0  0  0  0  0  0  0  0
   -2.3836   -2.8175    0.0000 C   0  0  0  0  0  0  0  0  0  0  0  0
   -1.5989   -1.7376    0.0000 N   0  0  0  0  0  0  0  0  0  0  0  0
   -2.3836   -1.4826    0.0000 C   0  0  0  0  0  0  0  0  0  0  0  0
   -2.8685   -2.1501    0.0000 C   0  0  0  0  0  0  0  0  0  0  0  0
   -3.6890   -2.0638    0.0000 C   0  0  0  0  0  0  0  0  0  0  0  0
   -4.0245   -1.3102    0.0000 C   0  0  0  0  0  0  0  0  0  0  0  0
   -3.5396   -0.6427    0.0000 C   0  0  0  0  0  0  0  0  0  0  0  0
   -2.7191   -0.7290    0.0000 C   0  0  0  0  0  0  0  0  0  0  0  0
   -0.9315   -1.2526    0.0000 C   0  0  0  0  0  0  0  0  0  0  0  0
   -0.1778   -1.5882    0.0000 C   0  0  0  0  0  0  0  0  0  0  0  0
    0.4896   -1.1033    0.0000 N   0  0  0  0  0  0  0  0  0  0  0  0
   -0.0916   -2.4087    0.0000 O   0  0  0  0  0  0  0  0  0  0  0  0
    0.4896   -0.2783    0.0000 C   0  0  0  0  0  0  0  0  0  0  0  0
    1.2742   -0.0233    0.0000 C   0  0  0  0  0  0  0  0  0  0  0  0
    1.7592   -0.6908    0.0000 C   0  0  0  0  0  0  0  0  0  0  0  0
    1.2742   -1.3582    0.0000 N   0  0  0  0  0  0  0  0  0  0  0  0
   -0.1778    0.2066    0.0000 C   0  0  0  0  0  0  0  0  0  0  0  0
   -0.9315   -0.1289    0.0000 C   0  0  0  0  0  0  0  0  0  0  0  0
   -1.5989    0.3560    0.0000 C   0  0  0  0  0  0  0  0  0  0  0  0
   -1.5127    1.1765    0.0000 C   0  0  0  0  0  0  0  0  0  0  0  0
   -0.7590    1.5120    0.0000 C   0  0  0  0  0  0  0  0  0  0  0  0
   -0.0916    1.0271    0.0000 C   0  0  0  0  0  0  0  0  0  0  0  0
    2.5842   -0.6908    0.0000 C   0  0  0  0  0  0  0  0  0  0  0  0
    3.0691   -0.0233    0.0000 C   0  0  0  0  0  0  0  0  0  0  0  0
    3.0691   -1.3582    0.0000 O   0  0  0  0  0  0  0  0  0  0  0  0
    3.8537   -1.1033    0.0000 C   0  0  0  0  0  0  0  0  0  0  0  0
    3.8537   -0.2783    0.0000 C   0  0  0  0  0  0  0  0  0  0  0  0
    4.5682    0.1342    0.0000 C   0  0  0  0  0  0  0  0  0  0  0  0
    5.2827   -0.2783    0.0000 C   0  0  0  0  0  0  0  0  0  0  0  0
    5.2827   -1.1033    0.0000 C   0  0  0  0  0  0  0  0  0  0  0  0
    4.5682   -1.5158    0.0000 C   0  0  0  0  0  0  0  0  0  0  0  0
    0.6621    1.3627    0.0000 N   0  3  0  0  0  0  0  0  0  0  0  0
    1.3295    0.8778    0.0000 O   0  5  0  0  0  0  0  0  0  0  0  0
    0.7483    2.1832    0.0000 O   0  0  0  0  0  0  0  0  0  0  0  0
 19 20  1  0  0  0  0
  3  6  1  0  0  0  0
 19 21  2  0  0  0  0
 20 22  1  0  0  0  0
  5  4  1  0  0  0  0
  5  6  2  0  0  0  0
 10 13  1  0  0  0  0
 12 11  1  0  0  0  0
 22 23  1  0  0  0  0
 23 24  1  0  0  0  0
 24 25  2  0  0  0  0
 25 20  1  0  0  0  0
 11  9  1  0  0  0  0
 22 26  1  0  0  0  0
 12 13  1  0  0  0  0
 26 27  2  0  0  0  0
 27 28  1  0  0  0  0
  1  2  1  0  0  0  0
 28 29  2  0  0  0  0
  1  4  2  0  0  0  0
 29 30  1  0  0  0  0
  2  3  2  0  0  0  0
 30 31  2  0  0  0  0
 31 26  1  0  0  0  0
 32 33  2  0  0  0  0
  5  8  1  0  0  0  0
  6  7  1  0  0  0  0
 12 17  2  0  0  0  0
 33 36  1  0  0  0  0
 35 34  1  0  0  0  0
 34 32  1  0  0  0  0
 24 32  1  0  0  0  0
 13 14  2  0  0  0  0
 14 15  1  0  0  0  0
 35 36  2  0  0  0  0
 15 16  2  0  0  0  0
 36 37  1  0  0  0  0
 16 17  1  0  0  0  0
 37 38  2  0  0  0  0
  7 10  2  0  0  0  0
 38 39  1  0  0  0  0
 11 18  1  0  0  0  0
 39 40  2  0  0  0  0
 40 35  1  0  0  0  0
  9  8  2  0  0  0  0
 31 41  1  0  0  0  0
 18 19  1  0  0  0  0
 41 42  1  0  0  0  0
  9 10  1  0  0  0  0
 41 43  2  0  0  0  0
M  CHG  2  41   1  42  -1
M  END
>  <Mol Weight>
566.5656

>  <Formula>
C33H22N6O4

>  <chembl_id>
CHEMBL540983

$$$$

  Mrv0541 06201412482D          

 44 50  0  0  0  0            999 V2000
    1.2923   -9.3836    0.0000 C   0  0  0  0  0  0  0  0  0  0  0  0
    1.2912  -10.2110    0.0000 C   0  0  0  0  0  0  0  0  0  0  0  0
    2.0060  -10.6238    0.0000 C   0  0  0  0  0  0  0  0  0  0  0  0
    2.0042   -8.9708    0.0000 C   0  0  0  0  0  0  0  0  0  0  0  0
    2.7196   -9.3800    0.0000 C   0  0  0  0  0  0  0  0  0  0  0  0
    2.7203  -10.2068    0.0000 C   0  0  0  0  0  0  0  0  0  0  0  0
    3.4356  -10.6178    0.0000 C   0  0  0  0  0  0  0  0  0  0  0  0
    4.1507  -10.2030    0.0000 C   0  0  0  0  0  0  0  0  0  0  0  0
    4.1459   -9.3730    0.0000 C   0  0  0  0  0  0  0  0  0  0  0  0
    3.4300   -8.9658    0.0000 C   0  0  0  0  0  0  0  0  0  0  0  0
   -4.4181   -6.9125    0.0000 C   0  0  0  0  0  0  0  0  0  0  0  0
   -4.4193   -7.7398    0.0000 C   0  0  0  0  0  0  0  0  0  0  0  0
   -3.7044   -8.1527    0.0000 N   0  0  0  0  0  0  0  0  0  0  0  0
   -2.9880   -7.7394    0.0000 C   0  0  0  0  0  0  0  0  0  0  0  0
   -2.9909   -6.9088    0.0000 N   0  0  0  0  0  0  0  0  0  0  0  0
   -3.7076   -6.5002    0.0000 C   0  0  0  0  0  0  0  0  0  0  0  0
   -3.7328   -5.6753    0.0000 N   0  0  0  0  0  0  0  0  0  0  0  0
   -2.2729   -8.1507    0.0000 N   0  0  0  0  0  0  0  0  0  0  0  0
   -4.1836   -4.4190    0.0000 N   0  0  0  0  0  0  0  0  0  0  0  0
   -4.4143   -5.2111    0.0000 C   0  0  0  0  0  0  0  0  0  0  0  0
   -3.3589   -4.3937    0.0000 C   0  0  0  0  0  0  0  0  0  0  0  0
   -3.0827   -5.1688    0.0000 C   0  0  0  0  0  0  0  0  0  0  0  0
   -2.2750   -5.3158    0.0000 C   0  0  0  0  0  0  0  0  0  0  0  0
   -1.7427   -4.6887    0.0000 C   0  0  0  0  0  0  0  0  0  0  0  0
   -2.0237   -3.9120    0.0000 C   0  0  0  0  0  0  0  0  0  0  0  0
   -2.8307   -3.7686    0.0000 C   0  0  0  0  0  0  0  0  0  0  0  0
   -1.5591   -7.7371    0.0000 C   0  0  0  0  0  0  0  0  0  0  0  0
   -0.8439   -8.1485    0.0000 C   0  0  0  0  0  0  0  0  0  0  0  0
   -0.8467   -8.9715    0.0000 N   0  0  0  0  0  0  0  0  0  0  0  0
   -0.1357   -9.3828    0.0000 C   0  0  0  0  0  0  0  0  0  0  0  0
    0.5806   -8.9727    0.0000 C   0  0  0  0  0  0  0  0  0  0  0  0
    0.5813   -8.1468    0.0000 N   0  0  0  0  0  0  0  0  0  0  0  0
   -0.1343   -7.7309    0.0000 C   0  0  0  0  0  0  0  0  0  0  0  0
    1.2965   -7.7356    0.0000 C   0  0  0  0  0  0  0  0  0  0  0  0
    1.2980   -6.9106    0.0000 O   0  0  0  0  0  0  0  0  0  0  0  0
   -1.5604   -6.9121    0.0000 C   0  0  0  0  0  0  0  0  0  0  0  0
    2.0102   -8.1494    0.0000 N   0  0  0  0  0  0  0  0  0  0  0  0
   -1.5620   -9.3825    0.0000 C   0  0  0  0  0  0  0  0  0  0  0  0
   -1.5638  -10.2075    0.0000 C   0  0  0  0  0  0  0  0  0  0  0  0
   -2.2779  -10.6161    0.0000 C   0  0  0  0  0  0  0  0  0  0  0  0
   -2.2799  -11.4403    0.0000 C   0  0  0  0  0  0  0  0  0  0  0  0
   -1.5658  -11.8551    0.0000 C   0  0  0  0  0  0  0  0  0  0  0  0
   -0.8481  -11.4397    0.0000 C   0  0  0  0  0  0  0  0  0  0  0  0
   -0.8495  -10.6168    0.0000 C   0  0  0  0  0  0  0  0  0  0  0  0
  9 10  2  0  0  0  0
 10  5  1  0  0  0  0
 21 22  2  0  0  0  0
 22 23  1  0  0  0  0
  2  3  1  0  0  0  0
 23 24  2  0  0  0  0
 11 12  2  0  0  0  0
 24 25  1  0  0  0  0
  5  6  1  0  0  0  0
 25 26  2  0  0  0  0
 26 21  1  0  0  0  0
 12 13  1  0  0  0  0
 18 27  1  0  0  0  0
  3  6  2  0  0  0  0
 27 28  1  0  0  0  0
 28 29  1  0  0  0  0
 13 14  2  0  0  0  0
  6  7  1  0  0  0  0
 14 15  1  0  0  0  0
  1  2  2  0  0  0  0
 15 16  2  0  0  0  0
 28 33  1  0  0  0  0
 29 30  1  0  0  0  0
 30 31  1  0  0  0  0
 31 32  1  0  0  0  0
 32 33  1  0  0  0  0
 16 11  1  0  0  0  0
 32 34  1  0  0  0  0
  7  8  2  0  0  0  0
 34 35  2  0  0  0  0
 16 17  1  0  0  0  0
 27 36  1  0  0  0  0
  5  4  2  0  0  0  0
 34 37  1  0  0  0  0
 37  4  1  0  0  0  0
 14 18  1  0  0  0  0
 29 38  1  0  0  0  0
 17 22  1  0  0  0  0
 38 39  1  0  0  0  0
  8  9  1  0  0  0  0
 39 40  2  0  0  0  0
  4  1  1  0  0  0  0
 40 41  1  0  0  0  0
 21 19  1  0  0  0  0
 41 42  2  0  0  0  0
 19 20  2  0  0  0  0
 42 43  1  0  0  0  0
 20 17  1  0  0  0  0
 43 44  2  0  0  0  0
 44 39  1  0  0  0  0
M  END
>  <Mol Weight>
582.6975

>  <Formula>
C35H34N8O

>  <chembl_id>
CHEMBL572199

$$$$

  Mrv0541 06201412482D          

 43 47  0  0  0  0            999 V2000
    7.5708  -20.8875    0.0000 C   0  0  0  0  0  0  0  0  0  0  0  0
    7.5708  -21.7125    0.0000 C   0  0  0  0  0  0  0  0  0  0  0  0
    8.2829  -22.1208    0.0000 C   0  0  0  0  0  0  0  0  0  0  0  0
    8.2829  -20.4708    0.0000 C   0  0  0  0  0  0  0  0  0  0  0  0
    8.9949  -20.8875    0.0000 C   0  0  1  0  0  0  0  0  0  0  0  0
    8.9959  -21.7125    0.0000 C   0  0  1  0  0  0  0  0  0  0  0  0
    9.7070  -22.1218    0.0000 C   0  0  0  0  0  0  0  0  0  0  0  0
   10.4215  -21.7107    0.0000 C   0  0  0  0  0  0  0  0  0  0  0  0
    9.7049  -20.4718    0.0000 C   0  0  2  0  0  0  0  0  0  0  0  0
   10.4224  -20.8863    0.0000 C   0  0  2  0  0  0  0  0  0  0  0  0
   10.4212  -19.2319    0.0000 C   0  0  0  0  0  0  0  0  0  0  0  0
    9.7011  -19.6454    0.0000 C   0  0  0  0  0  0  0  0  0  0  0  0
   11.1387  -19.6464    0.0000 C   0  0  0  0  0  0  0  0  0  0  0  0
   11.1376  -20.4751    0.0000 C   0  0  1  0  0  0  0  0  0  0  0  0
   11.8507  -20.8880    0.0000 C   0  0  0  0  0  0  0  0  0  0  0  0
   12.5695  -20.4769    0.0000 C   0  0  0  0  0  0  0  0  0  0  0  0
   11.8529  -19.2307    0.0000 C   0  0  2  0  0  0  0  0  0  0  0  0
   12.5700  -19.6530    0.0000 C   0  0  2  0  0  0  0  0  0  0  0  0
   13.2902  -19.2453    0.0000 C   0  0  1  0  0  0  0  0  0  0  0  0
   13.2996  -18.4137    0.0000 C   0  0  0  0  0  0  0  0  0  0  0  0
   12.5825  -17.9915    0.0000 C   0  0  0  0  0  0  0  0  0  0  0  0
   11.8560  -18.4009    0.0000 C   0  0  0  0  0  0  0  0  0  0  0  0
   11.1333  -21.3000    0.0000 C   0  0  0  0  0  0  0  0  0  0  0  0
   10.4167  -20.0583    0.0000 C   0  0  0  0  0  0  0  0  0  0  0  0
    8.9875  -20.0625    0.0000 C   0  0  0  0  0  0  0  0  0  0  0  0
    7.6917  -22.7042    0.0000 C   0  0  0  0  0  0  0  0  0  0  0  0
    8.6875  -22.8333    0.0000 C   0  0  0  0  0  0  0  0  0  0  0  0
    8.9917  -22.5333    0.0000 H   0  0  0  0  0  0  0  0  0  0  0  0
    9.7000  -21.2958    0.0000 H   0  0  0  0  0  0  0  0  0  0  0  0
   11.1333  -18.8167    0.0000 H   0  0  0  0  0  0  0  0  0  0  0  0
   12.1625  -17.2708    0.0000 C   0  0  0  0  0  0  0  0  0  0  0  0
   12.9875  -17.2708    0.0000 C   0  0  0  0  0  0  0  0  0  0  0  0
    6.8570  -22.1260    0.0000 O   0  0  0  0  0  0  0  0  0  0  0  0
   14.0006  -19.6648    0.0000 O   0  0  0  0  0  0  0  0  0  0  0  0
   12.9750  -20.3625    0.0000 C   0  0  0  0  0  0  0  0  0  0  0  0
   12.5590  -21.0749    0.0000 O   0  0  0  0  0  0  0  0  0  0  0  0
   13.8000  -20.3666    0.0000 O   0  0  0  0  0  0  0  0  0  0  0  0
   14.7191  -19.2594    0.0000 C   0  0  0  0  0  0  0  0  0  0  0  0
   15.4295  -19.6789    0.0000 C   0  0  0  0  0  0  0  0  0  0  0  0
   14.7272  -18.4344    0.0000 O   0  0  0  0  0  0  0  0  0  0  0  0
   16.1480  -19.2735    0.0000 C   0  0  0  0  0  0  0  0  0  0  0  0
   16.8583  -19.6930    0.0000 C   0  0  0  0  0  0  0  0  0  0  0  0
   16.1561  -18.4485    0.0000 C   0  0  0  0  0  0  0  0  0  0  0  0
  5  4  1  0  0  0  0
 17 22  1  0  0  0  0
 18 19  1  0  0  0  0
 19 20  1  0  0  0  0
 20 21  1  0  0  0  0
 21 22  1  0  0  0  0
  5  6  1  0  0  0  0
 14 23  1  6  0  0  0
 10 24  1  1  0  0  0
  9 12  1  0  0  0  0
  5 25  1  1  0  0  0
 10 14  1  0  0  0  0
  3 26  1  0  0  0  0
 13 11  2  0  0  0  0
  3 27  1  0  0  0  0
 11 12  1  0  0  0  0
  6 28  1  6  0  0  0
 13 14  1  0  0  0  0
  9 29  1  6  0  0  0
  1  2  1  0  0  0  0
 17 30  1  6  0  0  0
  1  4  1  0  0  0  0
 21 31  1  0  0  0  0
  2  3  1  0  0  0  0
 21 32  1  0  0  0  0
  5  9  1  0  0  0  0
  2 33  2  0  0  0  0
 13 17  1  0  0  0  0
 19 34  1  1  0  0  0
 14 15  1  0  0  0  0
 18 35  1  1  0  0  0
 15 16  1  0  0  0  0
 35 36  2  0  0  0  0
 16 18  1  0  0  0  0
 35 37  1  0  0  0  0
 17 18  1  0  0  0  0
 34 38  1  0  0  0  0
  6  7  1  0  0  0  0
 38 39  1  0  0  0  0
  7  8  1  0  0  0  0
 38 40  2  0  0  0  0
  8 10  1  0  0  0  0
 39 41  2  0  0  0  0
  9 10  1  0  0  0  0
 41 42  1  0  0  0  0
  3  6  1  0  0  0  0
 41 43  1  0  0  0  0
M  END
>  <Mol Weight>
552.7844

>  <Formula>
C35H52O5

>  <chembl_id>
CHEMBL555367

$$$$

  Mrv0541 06201412482D          

 41 46  0  0  0  0            999 V2000
    2.9848   -6.1769    0.0000 C   0  0  0  0  0  0  0  0  0  0  0  0
    2.9837   -7.0046    0.0000 C   0  0  0  0  0  0  0  0  0  0  0  0
    3.6965   -7.4176    0.0000 C   0  0  0  0  0  0  0  0  0  0  0  0
    3.6947   -5.7639    0.0000 C   0  0  0  0  0  0  0  0  0  0  0  0
    4.4123   -6.1732    0.0000 C   0  0  0  0  0  0  0  0  0  0  0  0
    4.4131   -7.0003    0.0000 C   0  0  0  0  0  0  0  0  0  0  0  0
    5.1263   -7.4115    0.0000 N   0  0  0  0  0  0  0  0  0  0  0  0
    5.8437   -6.9964    0.0000 C   0  0  0  0  0  0  0  0  0  0  0  0
    5.8388   -6.1661    0.0000 N   0  0  0  0  0  0  0  0  0  0  0  0
    5.1206   -5.7588    0.0000 C   0  0  0  0  0  0  0  0  0  0  0  0
    2.2667   -7.4167    0.0000 O   0  0  0  0  0  0  0  0  0  0  0  0
    1.5502   -7.0034    0.0000 C   0  0  0  0  0  0  0  0  0  0  0  0
    5.1161   -4.9336    0.0000 N   0  0  0  0  0  0  0  0  0  0  0  0
    5.8306   -4.5170    0.0000 C   0  0  0  0  0  0  0  0  0  0  0  0
    7.2505   -3.6874    0.0000 C   0  0  0  0  0  0  0  0  0  0  0  0
    6.5307   -3.2788    0.0000 C   0  0  0  0  0  0  0  0  0  0  0  0
    5.8198   -3.6970    0.0000 C   0  0  0  0  0  0  0  0  0  0  0  0
    7.9628   -3.2711    0.0000 C   0  0  0  0  0  0  0  0  0  0  0  0
    8.7176   -3.6001    0.0000 N   0  0  0  0  0  0  0  0  0  0  0  0
    8.0412   -2.4499    0.0000 S   0  0  0  0  0  0  0  0  0  0  0  0
    8.8510   -2.2734    0.0000 C   0  0  0  0  0  0  0  0  0  0  0  0
    9.2678   -2.9851    0.0000 C   0  0  0  0  0  0  0  0  0  0  0  0
   10.0927   -2.9801    0.0000 C   0  0  0  0  0  0  0  0  0  0  0  0
   10.5016   -2.2641    0.0000 C   0  0  0  0  0  0  0  0  0  0  0  0
   10.0797   -1.5474    0.0000 C   0  0  0  0  0  0  0  0  0  0  0  0
    9.2563   -1.5561    0.0000 C   0  0  0  0  0  0  0  0  0  0  0  0
    0.8375   -7.4155    0.0000 C   0  0  0  0  0  0  0  0  0  0  0  0
    0.1212   -7.0023    0.0000 C   0  0  0  0  0  0  0  0  0  0  0  0
   -0.5916   -7.4143    0.0000 N   0  0  0  0  0  0  0  0  0  0  0  0
   -1.3020   -6.9972    0.0000 C   0  0  0  0  0  0  0  0  0  0  0  0
   -2.0168   -7.4056    0.0000 C   0  0  0  0  0  0  0  0  0  0  0  0
   -2.0218   -8.2313    0.0000 N   0  0  0  0  0  0  0  0  0  0  0  0
   -1.3057   -8.6467    0.0000 C   0  0  0  0  0  0  0  0  0  0  0  0
   -0.5888   -8.2366    0.0000 C   0  0  0  0  0  0  0  0  0  0  0  0
   -2.7363   -8.6406    0.0000 C   0  0  0  0  0  0  0  0  0  0  0  0
   10.4850   -0.8266    0.0000 Cl  0  0  0  0  0  0  0  0  0  0  0  0
    2.2681   -5.7644    0.0000 O   0  0  0  0  0  0  0  0  0  0  0  0
    2.2679   -4.9392    0.0000 C   0  0  0  0  0  0  0  0  0  0  0  0
    6.5636   -4.9318    0.0000 C   0  0  0  0  0  0  0  0  0  0  0  0
    7.2872   -4.5051    0.0000 C   0  0  0  0  0  0  0  0  0  0  0  0
    5.0859   -3.2836    0.0000 F   0  0  0  0  0  0  0  0  0  0  0  0
  9 10  2  0  0  0  0
 10  5  1  0  0  0  0
 19 22  1  0  0  0  0
 21 20  1  0  0  0  0
 20 18  1  0  0  0  0
 15 18  1  0  0  0  0
  2 11  1  0  0  0  0
 21 22  2  0  0  0  0
  2  3  1  0  0  0  0
 22 23  1  0  0  0  0
 11 12  1  0  0  0  0
 23 24  2  0  0  0  0
  5  6  1  0  0  0  0
 24 25  1  0  0  0  0
 10 13  1  0  0  0  0
 25 26  2  0  0  0  0
 26 21  1  0  0  0  0
  3  6  2  0  0  0  0
 12 27  1  0  0  0  0
 13 14  1  0  0  0  0
 27 28  1  0  0  0  0
  6  7  1  0  0  0  0
 28 29  1  0  0  0  0
 29 30  1  0  0  0  0
  1  2  2  0  0  0  0
  7  8  2  0  0  0  0
 40 15  2  0  0  0  0
 29 34  1  0  0  0  0
 30 31  1  0  0  0  0
 31 32  1  0  0  0  0
 32 33  1  0  0  0  0
 33 34  1  0  0  0  0
  5  4  2  0  0  0  0
 32 35  1  0  0  0  0
 15 16  1  0  0  0  0
  8  9  1  0  0  0  0
 25 36  1  0  0  0  0
 16 17  2  0  0  0  0
  1 37  1  0  0  0  0
 17 14  1  0  0  0  0
 37 38  1  0  0  0  0
 14 39  2  0  0  0  0
 18 19  2  0  0  0  0
 39 40  1  0  0  0  0
  4  1  1  0  0  0  0
 17 41  1  0  0  0  0
M  END
>  <Mol Weight>
593.115

>  <Formula>
C30H30ClFN6O2S

>  <chembl_id>
CHEMBL593909

$$$$

  Mrv0541 06201412482D          

 41 46  0  0  0  0            999 V2000
    0.0401  -22.2777    0.0000 C   0  0  0  0  0  0  0  0  0  0  0  0
    0.0389  -23.1066    0.0000 C   0  0  0  0  0  0  0  0  0  0  0  0
    0.7557  -23.5224    0.0000 C   0  0  0  0  0  0  0  0  0  0  0  0
    0.7539  -21.8663    0.0000 C   0  0  0  0  0  0  0  0  0  0  0  0
    1.4710  -22.2741    0.0000 C   0  0  0  0  0  0  0  0  0  0  0  0
    1.4718  -23.1024    0.0000 C   0  0  0  0  0  0  0  0  0  0  0  0
    2.1889  -23.5163    0.0000 N   0  0  0  0  0  0  0  0  0  0  0  0
    2.9016  -23.0987    0.0000 C   0  0  0  0  0  0  0  0  0  0  0  0
    2.8969  -22.2672    0.0000 N   0  0  0  0  0  0  0  0  0  0  0  0
    2.1833  -21.8613    0.0000 C   0  0  0  0  0  0  0  0  0  0  0  0
   -0.6777  -23.5214    0.0000 O   0  0  0  0  0  0  0  0  0  0  0  0
   -1.3937  -23.1055    0.0000 C   0  0  0  0  0  0  0  0  0  0  0  0
   -0.6763  -21.8667    0.0000 O   0  0  0  0  0  0  0  0  0  0  0  0
    2.1789  -21.0349    0.0000 N   0  0  0  0  0  0  0  0  0  0  0  0
    2.8889  -20.6158    0.0000 C   0  0  0  0  0  0  0  0  0  0  0  0
    3.6028  -21.0308    0.0000 C   0  0  0  0  0  0  0  0  0  0  0  0
    4.3165  -20.6123    0.0000 C   0  0  0  0  0  0  0  0  0  0  0  0
    4.3126  -19.7849    0.0000 C   0  0  0  0  0  0  0  0  0  0  0  0
    3.5891  -19.3777    0.0000 C   0  0  0  0  0  0  0  0  0  0  0  0
    2.8784  -19.7944    0.0000 C   0  0  0  0  0  0  0  0  0  0  0  0
    5.0246  -19.3702    0.0000 C   0  0  0  0  0  0  0  0  0  0  0  0
    5.7823  -19.6997    0.0000 N   0  0  0  0  0  0  0  0  0  0  0  0
    5.1052  -18.5478    0.0000 S   0  0  0  0  0  0  0  0  0  0  0  0
    5.9125  -18.3714    0.0000 C   0  0  0  0  0  0  0  0  0  0  0  0
    6.3320  -19.0828    0.0000 C   0  0  0  0  0  0  0  0  0  0  0  0
    7.1579  -19.0779    0.0000 C   0  0  0  0  0  0  0  0  0  0  0  0
    7.5655  -18.3623    0.0000 C   0  0  0  0  0  0  0  0  0  0  0  0
    7.1452  -17.6460    0.0000 C   0  0  0  0  0  0  0  0  0  0  0  0
    6.3206  -17.6544    0.0000 C   0  0  0  0  0  0  0  0  0  0  0  0
   -1.3873  -22.2799    0.0000 C   0  0  0  0  0  0  0  0  0  0  0  0
   -2.1007  -21.8707    0.0000 C   0  0  0  0  0  0  0  0  0  0  0  0
   -2.8117  -22.2839    0.0000 C   0  0  0  0  0  0  0  0  0  0  0  0
   -3.5250  -21.8747    0.0000 N   0  0  0  0  0  0  0  0  0  0  0  0
   -3.5287  -21.0558    0.0000 C   0  0  0  0  0  0  0  0  0  0  0  0
   -4.2379  -20.6467    0.0000 C   0  0  0  0  0  0  0  0  0  0  0  0
   -4.9514  -21.0564    0.0000 N   0  0  0  0  0  0  0  0  0  0  0  0
   -4.9510  -21.8797    0.0000 C   0  0  0  0  0  0  0  0  0  0  0  0
   -4.2373  -22.2933    0.0000 C   0  0  0  0  0  0  0  0  0  0  0  0
   -5.6630  -20.6445    0.0000 C   0  0  0  0  0  0  0  0  0  0  0  0
    3.5818  -18.5555    0.0000 O   0  0  0  0  0  0  0  0  0  0  0  0
    4.2903  -18.1380    0.0000 C   0  0  0  0  0  0  0  0  0  0  0  0
 18 21  1  0  0  0  0
  2  3  1  0  0  0  0
 11 12  1  0  0  0  0
 24 25  2  0  0  0  0
  5  6  1  0  0  0  0
 25 26  1  0  0  0  0
  1 13  1  0  0  0  0
 26 27  2  0  0  0  0
  3  6  2  0  0  0  0
 27 28  1  0  0  0  0
 28 29  2  0  0  0  0
 29 24  1  0  0  0  0
  6  7  1  0  0  0  0
 10 14  1  0  0  0  0
  1  2  2  0  0  0  0
 14 15  1  0  0  0  0
  7  8  2  0  0  0  0
 15 16  2  0  0  0  0
  5  4  2  0  0  0  0
 16 17  1  0  0  0  0
  8  9  1  0  0  0  0
 17 18  2  0  0  0  0
 13 30  1  0  0  0  0
  4  1  1  0  0  0  0
 30 31  1  0  0  0  0
 18 19  1  0  0  0  0
 31 32  1  0  0  0  0
  9 10  2  0  0  0  0
 32 33  1  0  0  0  0
 33 34  1  0  0  0  0
 19 20  2  0  0  0  0
 20 15  1  0  0  0  0
 21 22  2  0  0  0  0
 10  5  1  0  0  0  0
  2 11  1  0  0  0  0
 33 38  1  0  0  0  0
 34 35  1  0  0  0  0
 35 36  1  0  0  0  0
 36 37  1  0  0  0  0
 37 38  1  0  0  0  0
 22 25  1  0  0  0  0
 36 39  1  0  0  0  0
 24 23  1  0  0  0  0
 19 40  1  0  0  0  0
 23 21  1  0  0  0  0
 40 41  1  0  0  0  0
M  END
>  <Mol Weight>
570.705

>  <Formula>
C31H34N6O3S

>  <chembl_id>
CHEMBL593911

$$$$

  Mrv0541 06201412482D          

 43 47  0  0  0  0            999 V2000
   10.3873  -23.7878    0.0000 C   0  0  0  0  0  0  0  0  0  0  0  0
   10.3873  -24.6174    0.0000 C   0  0  0  0  0  0  0  0  0  0  0  0
   11.1017  -25.0299    0.0000 N   0  0  0  0  0  0  0  0  0  0  0  0
   11.8208  -24.6174    0.0000 C   0  0  0  0  0  0  0  0  0  0  0  0
   11.8208  -23.7878    0.0000 C   0  0  0  0  0  0  0  0  0  0  0  0
   11.1017  -23.3708    0.0000 C   0  0  0  0  0  0  0  0  0  0  0  0
   10.3824  -22.9670    0.0000 C   0  0  0  0  0  0  0  0  0  0  0  0
   10.3742  -22.1396    0.0000 C   0  0  0  0  0  0  0  0  0  0  0  0
    9.6567  -21.7347    0.0000 C   0  0  0  0  0  0  0  0  0  0  0  0
    8.9421  -22.1563    0.0000 C   0  0  0  0  0  0  0  0  0  0  0  0
    8.9546  -22.9872    0.0000 C   0  0  0  0  0  0  0  0  0  0  0  0
    9.6774  -23.3878    0.0000 C   0  0  0  0  0  0  0  0  0  0  0  0
   11.8111  -22.9497    0.0000 C   0  0  0  0  0  0  0  0  0  0  0  0
   12.5305  -23.3535    0.0000 N   0  0  0  0  0  0  0  0  0  0  0  0
   11.8011  -22.1248    0.0000 O   0  0  0  0  0  0  0  0  0  0  0  0
   12.6291  -24.1721    0.0000 C   0  0  0  0  0  0  0  0  0  0  0  0
   13.4381  -24.3338    0.0000 C   0  0  0  0  0  0  0  0  0  0  0  0
   13.8419  -23.6144    0.0000 C   0  0  0  0  0  0  0  0  0  0  0  0
   13.2825  -23.0082    0.0000 C   0  0  0  0  0  0  0  0  0  0  0  0
   11.1006  -25.8548    0.0000 C   0  0  0  0  0  0  0  0  0  0  0  0
   10.3856  -26.2663    0.0000 O   0  0  0  0  0  0  0  0  0  0  0  0
   11.8145  -26.2683    0.0000 C   0  0  1  0  0  0  0  0  0  0  0  0
   11.8121  -27.0916    0.0000 C   0  0  0  0  0  0  0  0  0  0  0  0
   12.5219  -27.5051    0.0000 C   0  0  0  0  0  0  0  0  0  0  0  0
   13.2393  -27.0971    0.0000 C   0  0  1  0  0  0  0  0  0  0  0  0
   13.2424  -26.2712    0.0000 C   0  0  0  0  0  0  0  0  0  0  0  0
   12.5281  -25.8532    0.0000 C   0  0  0  0  0  0  0  0  0  0  0  0
   11.0963  -27.5018    0.0000 C   0  0  0  0  0  0  0  0  0  0  0  0
   11.8060  -27.9157    0.0000 C   0  0  0  0  0  0  0  0  0  0  0  0
   13.9516  -27.5132    0.0000 N   0  0  0  0  0  0  0  0  0  0  0  0
   13.9473  -28.3382    0.0000 C   0  0  2  0  0  0  0  0  0  0  0  0
   13.2308  -28.7469    0.0000 C   0  0  0  0  0  0  0  0  0  0  0  0
   14.6596  -28.7543    0.0000 C   0  0  0  0  0  0  0  0  0  0  0  0
   14.6499  -29.5804    0.0000 C   0  0  0  0  0  0  0  0  0  0  0  0
   15.3614  -29.9965    0.0000 C   0  0  0  0  0  0  0  0  0  0  0  0
   16.0790  -29.5876    0.0000 C   0  0  0  0  0  0  0  0  0  0  0  0
   16.0806  -28.7584    0.0000 C   0  0  0  0  0  0  0  0  0  0  0  0
   15.3685  -28.3460    0.0000 C   0  0  0  0  0  0  0  0  0  0  0  0
   12.5185  -28.3308    0.0000 F   0  0  0  0  0  0  0  0  0  0  0  0
   13.2265  -29.5719    0.0000 F   0  0  0  0  0  0  0  0  0  0  0  0
   16.7919  -30.0028    0.0000 O   0  0  0  0  0  0  0  0  0  0  0  0
   17.5078  -29.5931    0.0000 C   0  0  0  0  0  0  0  0  0  0  0  0
   12.6444  -29.3273    0.0000 F   0  0  0  0  0  0  0  0  0  0  0  0
  3  4  1  0  0  0  0
 20 21  2  0  0  0  0
 10 11  1  0  0  0  0
 22 20  1  6  0  0  0
 22 23  1  0  0  0  0
  4  5  1  0  0  0  0
 11 12  2  0  0  0  0
 12  7  1  0  0  0  0
  7  6  1  0  0  0  0
  5  6  1  0  0  0  0
 22 27  1  0  0  0  0
 23 24  1  0  0  0  0
 24 25  1  0  0  0  0
 25 26  1  0  0  0  0
 26 27  1  0  0  0  0
  6 13  1  0  0  0  0
 23 28  1  0  0  0  0
 23 29  1  0  0  0  0
 13 14  1  0  0  0  0
 25 30  1  1  0  0  0
  1  2  1  0  0  0  0
 30 31  1  0  0  0  0
 13 15  2  0  0  0  0
 31 32  1  1  0  0  0
 14 16  1  0  0  0  0
 31 33  1  0  0  0  0
  7  8  2  0  0  0  0
 33 34  2  0  0  0  0
  1  6  1  0  0  0  0
 34 35  1  0  0  0  0
  8  9  1  0  0  0  0
 35 36  2  0  0  0  0
  2  3  1  0  0  0  0
 36 37  1  0  0  0  0
 16 17  1  0  0  0  0
 37 38  2  0  0  0  0
 38 33  1  0  0  0  0
 17 18  1  0  0  0  0
 32 39  1  0  0  0  0
 18 19  1  0  0  0  0
 32 40  1  0  0  0  0
 19 14  1  0  0  0  0
 36 41  1  0  0  0  0
  9 10  2  0  0  0  0
 41 42  1  0  0  0  0
  3 20  1  0  0  0  0
 32 43  1  0  0  0  0
M  END
>  <Mol Weight>
599.7267

>  <Formula>
C34H44F3N3O3

>  <chembl_id>
CHEMBL538380

$$$$

  Mrv0541 06201412482D          

 43 48  0  0  0  0            999 V2000
    3.9872   -6.8235    0.0000 N   0  0  0  0  0  0  0  0  0  0  0  0
    4.7036   -6.4102    0.0000 C   0  0  0  0  0  0  0  0  0  0  0  0
    4.7008   -5.5797    0.0000 C   0  0  0  0  0  0  0  0  0  0  0  0
    3.9854   -5.1705    0.0000 C   0  0  0  0  0  0  0  0  0  0  0  0
    3.2724   -6.4107    0.0000 C   0  0  2  0  0  0  0  0  0  0  0  0
    3.2720   -5.5833    0.0000 C   0  0  1  0  0  0  0  0  0  0  0  0
    1.8422   -5.5840    0.0000 C   0  0  0  0  0  0  0  0  0  0  0  0
    1.8426   -6.4114    0.0000 C   0  0  0  0  0  0  0  0  0  0  0  0
    2.5600   -6.8270    0.0000 C   0  0  2  0  0  0  0  0  0  0  0  0
    3.9833   -4.3455    0.0000 O   0  0  0  0  0  0  0  0  0  0  0  0
    2.3416   -6.0250    0.0000 C   0  0  0  0  0  0  0  0  0  0  0  0
    2.5541   -5.2250    0.0000 C   0  0  1  0  0  0  0  0  0  0  0  0
    5.4188   -6.8216    0.0000 O   0  0  0  0  0  0  0  0  0  0  0  0
    5.4137   -5.1645    0.0000 C   0  0  0  0  0  0  0  0  0  0  0  0
    6.1310   -5.5788    0.0000 N   0  0  0  0  0  0  0  0  0  0  0  0
    6.1270   -3.9298    0.0000 S   0  0  0  0  0  0  0  0  0  0  0  0
    5.4100   -4.3432    0.0000 N   0  0  0  0  0  0  0  0  0  0  0  0
    5.7083   -3.2125    0.0000 O   0  0  0  0  0  0  0  0  0  0  0  0
    6.5333   -3.2125    0.0000 O   0  0  0  0  0  0  0  0  0  0  0  0
    6.8429   -4.3418    0.0000 C   0  0  0  0  0  0  0  0  0  0  0  0
    6.8391   -5.1648    0.0000 C   0  0  0  0  0  0  0  0  0  0  0  0
    7.5488   -5.5779    0.0000 C   0  0  0  0  0  0  0  0  0  0  0  0
    8.2628   -5.1690    0.0000 C   0  0  0  0  0  0  0  0  0  0  0  0
    8.2627   -4.3428    0.0000 C   0  0  0  0  0  0  0  0  0  0  0  0
    7.5524   -3.9335    0.0000 C   0  0  0  0  0  0  0  0  0  0  0  0
    8.9770   -3.9300    0.0000 N   0  0  0  0  0  0  0  0  0  0  0  0
    9.6916   -4.3421    0.0000 S   0  0  0  0  0  0  0  0  0  0  0  0
   10.4059   -3.9293    0.0000 C   0  0  0  0  0  0  0  0  0  0  0  0
    9.2708   -5.0542    0.0000 O   0  0  0  0  0  0  0  0  0  0  0  0
   10.0958   -5.0542    0.0000 O   0  0  0  0  0  0  0  0  0  0  0  0
    3.9870   -7.6485    0.0000 C   0  0  0  0  0  0  0  0  0  0  0  0
    4.7014   -8.0612    0.0000 C   0  0  0  0  0  0  0  0  0  0  0  0
    4.6970   -8.8844    0.0000 C   0  0  0  0  0  0  0  0  0  0  0  0
    5.4105   -9.2970    0.0000 C   0  0  0  0  0  0  0  0  0  0  0  0
    6.1261   -8.8846    0.0000 C   0  0  0  0  0  0  0  0  0  0  0  0
    6.1236   -8.0554    0.0000 C   0  0  0  0  0  0  0  0  0  0  0  0
    5.4095   -7.6465    0.0000 C   0  0  0  0  0  0  0  0  0  0  0  0
    3.2666   -4.7542    0.0000 H   0  0  0  0  0  0  0  0  0  0  0  0
    3.2666   -7.2333    0.0000 H   0  0  0  0  0  0  0  0  0  0  0  0
    2.5500   -4.4000    0.0000 H   0  0  0  0  0  0  0  0  0  0  0  0
    2.5541   -7.6500    0.0000 H   0  0  0  0  0  0  0  0  0  0  0  0
    3.9813   -9.2947    0.0000 F   0  0  0  0  0  0  0  0  0  0  0  0
    6.8367   -7.6406    0.0000 F   0  0  0  0  0  0  0  0  0  0  0  0
  8  9  1  0  0  0  0
 20 21  2  0  0  0  0
  4  6  1  0  0  0  0
 21 22  1  0  0  0  0
  4 10  1  0  0  0  0
 22 23  2  0  0  0  0
  5  6  1  0  0  0  0
 23 24  1  0  0  0  0
  9 11  1  0  0  0  0
 24 25  2  0  0  0  0
 25 20  1  0  0  0  0
  1  2  1  0  0  0  0
 24 26  1  0  0  0  0
 12 11  1  0  0  0  0
 26 27  1  0  0  0  0
  5  1  1  0  0  0  0
 27 28  1  0  0  0  0
  2 13  2  0  0  0  0
 27 29  2  0  0  0  0
  2  3  1  0  0  0  0
 27 30  2  0  0  0  0
  3 14  1  0  0  0  0
  1 31  1  0  0  0  0
 14 15  1  0  0  0  0
 31 32  1  0  0  0  0
 32 33  2  0  0  0  0
  3  4  2  0  0  0  0
 33 34  1  0  0  0  0
  5  9  1  0  0  0  0
 34 35  2  0  0  0  0
 14 17  2  0  0  0  0
 35 36  1  0  0  0  0
 15 21  1  0  0  0  0
 36 37  2  0  0  0  0
 37 32  1  0  0  0  0
 20 16  1  0  0  0  0
  6 38  1  6  0  0  0
 16 17  1  0  0  0  0
  5 39  1  6  0  0  0
  6 12  1  0  0  0  0
 12 40  1  1  0  0  0
 16 18  2  0  0  0  0
  9 41  1  1  0  0  0
 12  7  1  0  0  0  0
 16 19  2  0  0  0  0
 33 42  1  0  0  0  0
  7  8  1  0  0  0  0
 36 43  1  0  0  0  0
M  END
>  <Mol Weight>
578.608

>  <Formula>
C25H24F2N4O6S2

>  <chembl_id>
CHEMBL1076419

$$$$

  Mrv0541 06201412482D          

 40 43  0  0  0  0            999 V2000
    1.1651    1.7057    0.0000 C   0  0  0  0  0  0  0  0  0  0  0  0
    1.1666    1.0208    0.0000 C   0  0  2  0  0  0  0  0  0  0  0  0
    0.4583    1.4375    0.0000 C   0  0  0  0  0  0  0  0  0  0  0  0
   -0.2604    1.0208    0.0000 C   0  0  0  0  0  0  0  0  0  0  0  0
   -0.2500    0.1875    0.0000 C   0  0  1  0  0  0  0  0  0  0  0  0
    0.4583   -0.2083    0.0000 C   0  0  1  0  0  0  0  0  0  0  0  0
    0.4687   -1.0312    0.0000 C   0  0  0  0  0  0  0  0  0  0  0  0
   -0.2395   -1.4583    0.0000 C   0  0  0  0  0  0  0  0  0  0  0  0
   -0.9583   -1.0416    0.0000 C   0  0  0  0  0  0  0  0  0  0  0  0
   -1.6770   -1.4687    0.0000 C   0  0  0  0  0  0  0  0  0  0  0  0
   -2.3853   -1.0520    0.0000 C   0  0  0  0  0  0  0  0  0  0  0  0
   -3.1300   -1.4763    0.0000 O   0  0  0  0  0  0  0  0  0  0  0  0
   -3.8696   -1.0442    0.0000 C   0  0  0  0  0  0  0  0  0  0  0  0
   -3.8659   -0.3593    0.0000 O   0  0  0  0  0  0  0  0  0  0  0  0
   -4.6139   -1.4682    0.0000 N   0  0  0  0  0  0  0  0  0  0  0  0
   -5.3536   -1.0362    0.0000 C   0  0  0  0  0  0  0  0  0  0  0  0
   -6.0978   -1.4602    0.0000 C   0  0  0  0  0  0  0  0  0  0  0  0
   -6.8375   -1.0281    0.0000 C   0  0  0  0  0  0  0  0  0  0  0  0
   -6.8338   -0.3432    0.0000 O   0  0  0  0  0  0  0  0  0  0  0  0
   -7.5818   -1.4521    0.0000 N   0  0  0  0  0  0  0  0  0  0  0  0
   -8.3215   -1.0201    0.0000 C   0  0  0  0  0  0  0  0  0  0  0  0
   -9.0657   -1.4441    0.0000 P   0  0  0  0  0  0  0  0  0  0  0  0
   -9.6572   -1.0986    0.0000 O   0  0  0  0  0  0  0  0  0  0  0  0
   -9.0694   -2.1290    0.0000 O   0  0  0  0  0  0  0  0  0  0  0  0
   -9.6607   -1.7834    0.0000 O   0  0  0  0  0  0  0  0  0  0  0  0
   -8.3151   -0.1635    0.0000 P   0  0  0  0  0  0  0  0  0  0  0  0
   -7.7196    0.1749    0.0000 O   0  0  0  0  0  0  0  0  0  0  0  0
   -8.3103    0.5214    0.0000 O   0  0  0  0  0  0  0  0  0  0  0  0
   -8.9058    0.1832    0.0000 O   0  0  0  0  0  0  0  0  0  0  0  0
   -2.3853   -0.2292    0.0000 C   0  0  0  0  0  0  0  0  0  0  0  0
   -1.6875    0.1770    0.0000 C   0  0  0  0  0  0  0  0  0  0  0  0
   -0.9583   -0.2187    0.0000 C   0  0  0  0  0  0  0  0  0  0  0  0
    1.1666    0.1979    0.0000 C   0  0  2  0  0  0  0  0  0  0  0  0
    2.6041    0.1875    0.0000 C   0  0  0  0  0  0  0  0  0  0  0  0
    2.6041    1.0312    0.0000 C   0  0  0  0  0  0  0  0  0  0  0  0
    1.8853    1.4478    0.0000 C   0  0  2  0  0  0  0  0  0  0  0  0
    1.8817    2.1328    0.0000 O   0  0  0  0  0  0  0  0  0  0  0  0
    1.3116   -0.3542    0.0000 H   0  0  0  0  0  0  0  0  0  0  0  0
    0.9540   -0.4913    0.0000 H   0  0  0  0  0  0  0  0  0  0  0  0
   -0.7456    0.4705    0.0000 H   0  0  0  0  0  0  0  0  0  0  0  0
  2  1  1  1  0  0  0
  2  3  1  0  0  0  0
  3  4  1  0  0  0  0
  5  4  1  0  0  0  0
  5  6  1  0  0  0  0
  6  7  1  0  0  0  0
  7  8  1  0  0  0  0
  8  9  1  0  0  0  0
  9 10  2  0  0  0  0
 10 11  1  0  0  0  0
 11 12  1  0  0  0  0
 12 13  1  0  0  0  0
 13 14  2  0  0  0  0
 13 15  1  0  0  0  0
 15 16  1  0  0  0  0
 16 17  1  0  0  0  0
 17 18  1  0  0  0  0
 18 19  2  0  0  0  0
 18 20  1  0  0  0  0
 20 21  1  0  0  0  0
 21 22  1  0  0  0  0
 22 23  2  0  0  0  0
 22 24  1  0  0  0  0
 22 25  1  0  0  0  0
 21 26  1  0  0  0  0
 26 27  2  0  0  0  0
 26 28  1  0  0  0  0
 26 29  1  0  0  0  0
 11 30  2  0  0  0  0
 30 31  1  0  0  0  0
 31 32  2  0  0  0  0
 32  5  1  0  0  0  0
 32  9  1  0  0  0  0
  6 33  1  0  0  0  0
 33  2  1  0  0  0  0
 33 34  1  0  0  0  0
 34 35  1  0  0  0  0
 35 36  1  0  0  0  0
 36  2  1  0  0  0  0
 36 37  1  1  0  0  0
 33 38  1  6  0  0  0
  6 39  1  1  0  0  0
  5 40  1  6  0  0  0
M  END
>  <Mol Weight>
560.471

>  <Formula>
C23H34N2O10P2

>  <chembl_id>
CHEMBL1208419

$$$$

  Mrv0541 06201412482D          

 42 47  0  0  0  0            999 V2000
   -3.2230   -6.9260    0.0000 C   0  0  0  0  0  0  0  0  0  0  0  0
   -3.2230   -7.7510    0.0000 C   0  0  0  0  0  0  0  0  0  0  0  0
   -2.5086   -8.1635    0.0000 C   0  0  0  0  0  0  0  0  0  0  0  0
   -2.5086   -6.5135    0.0000 C   0  0  0  0  0  0  0  0  0  0  0  0
   -1.7941   -6.9260    0.0000 C   0  0  0  0  0  0  0  0  0  0  0  0
   -1.7941   -7.7510    0.0000 C   0  0  0  0  0  0  0  0  0  0  0  0
   -1.0796   -8.1635    0.0000 C   0  0  0  0  0  0  0  0  0  0  0  0
   -0.3651   -7.7510    0.0000 C   0  0  0  0  0  0  0  0  0  0  0  0
   -0.3651   -6.9260    0.0000 C   0  0  0  0  0  0  0  0  0  0  0  0
   -1.0796   -6.5135    0.0000 C   0  0  0  0  0  0  0  0  0  0  0  0
    0.3493   -6.5135    0.0000 C   0  0  0  0  0  0  0  0  0  0  0  0
    1.0638   -6.9260    0.0000 C   0  0  0  0  0  0  0  0  0  0  0  0
    1.0638   -5.2760    0.0000 C   0  0  0  0  0  0  0  0  0  0  0  0
    0.3493   -5.6885    0.0000 C   0  0  0  0  0  0  0  0  0  0  0  0
    1.7783   -5.6885    0.0000 C   0  0  0  0  0  0  0  0  0  0  0  0
    1.7783   -6.5135    0.0000 C   0  0  0  0  0  0  0  0  0  0  0  0
    2.4927   -6.9260    0.0000 C   0  0  0  0  0  0  0  0  0  0  0  0
    3.2072   -6.5135    0.0000 C   0  0  0  0  0  0  0  0  0  0  0  0
    3.2072   -5.6885    0.0000 C   0  0  0  0  0  0  0  0  0  0  0  0
    2.4927   -5.2760    0.0000 C   0  0  0  0  0  0  0  0  0  0  0  0
   -3.9375   -6.5135    0.0000 O   0  0  0  0  0  0  0  0  0  0  0  0
   -3.9375   -8.1635    0.0000 O   0  0  0  0  0  0  0  0  0  0  0  0
   -1.0796   -5.6885    0.0000 O   0  0  0  0  0  0  0  0  0  0  0  0
    0.3493   -8.1635    0.0000 C   0  0  0  0  0  0  0  0  0  0  0  0
    1.0638   -7.7510    0.0000 O   0  0  0  0  0  0  0  0  0  0  0  0
   -0.3651   -5.2760    0.0000 C   0  0  0  0  0  0  0  0  0  0  0  0
    3.9217   -6.9260    0.0000 O   0  0  0  0  0  0  0  0  0  0  0  0
    3.9217   -5.2760    0.0000 O   0  0  0  0  0  0  0  0  0  0  0  0
    2.4927   -4.4510    0.0000 C   0  0  0  0  0  0  0  0  0  0  0  0
    3.2072   -4.0385    0.0000 C   0  0  0  0  0  0  0  0  0  0  0  0
   -2.5086   -8.9885    0.0000 C   0  0  0  0  0  0  0  0  0  0  0  0
   -3.2230   -9.4010    0.0000 C   0  0  0  0  0  0  0  0  0  0  0  0
   -3.2230  -10.2260    0.0000 C   0  0  0  0  0  0  0  0  0  0  0  0
   -3.9375  -10.6385    0.0000 C   0  0  0  0  0  0  0  0  0  0  0  0
   -4.6520  -10.2260    0.0000 C   0  0  0  0  0  0  0  0  0  0  0  0
   -4.6520   -9.4010    0.0000 C   0  0  0  0  0  0  0  0  0  0  0  0
   -3.9375   -8.9885    0.0000 C   0  0  0  0  0  0  0  0  0  0  0  0
    3.2072   -3.2135    0.0000 C   0  0  0  0  0  0  0  0  0  0  0  0
    3.9217   -2.8010    0.0000 C   0  0  0  0  0  0  0  0  0  0  0  0
    4.6361   -3.2135    0.0000 C   0  0  0  0  0  0  0  0  0  0  0  0
    4.6361   -4.0385    0.0000 C   0  0  0  0  0  0  0  0  0  0  0  0
    3.9217   -4.4510    0.0000 C   0  0  0  0  0  0  0  0  0  0  0  0
 19 20  1  0  0  0  0
 20 15  2  0  0  0  0
  9 10  2  0  0  0  0
  1 21  1  0  0  0  0
 10  5  1  0  0  0  0
  2 22  1  0  0  0  0
 10 23  1  0  0  0  0
  2  3  1  0  0  0  0
  8 24  1  0  0  0  0
 11 12  2  0  0  0  0
 12 25  1  0  0  0  0
 12 16  1  0  0  0  0
 14 26  1  0  0  0  0
  5  6  1  0  0  0  0
 18 27  1  0  0  0  0
 15 13  1  0  0  0  0
 19 28  1  0  0  0  0
  3  6  2  0  0  0  0
 20 29  1  0  0  0  0
 13 14  2  0  0  0  0
 29 30  1  0  0  0  0
 14 11  1  0  0  0  0
  3 31  1  0  0  0  0
  9 11  1  0  0  0  0
 31 32  1  0  0  0  0
  6  7  1  0  0  0  0
 32 33  2  0  0  0  0
  1  2  2  0  0  0  0
 33 34  1  0  0  0  0
 15 16  1  0  0  0  0
 34 35  2  0  0  0  0
  7  8  2  0  0  0  0
 35 36  1  0  0  0  0
 16 17  2  0  0  0  0
 36 37  2  0  0  0  0
 37 32  1  0  0  0  0
  5  4  2  0  0  0  0
 30 38  2  0  0  0  0
 17 18  1  0  0  0  0
 38 39  1  0  0  0  0
  8  9  1  0  0  0  0
 39 40  2  0  0  0  0
 18 19  2  0  0  0  0
 40 41  1  0  0  0  0
  4  1  1  0  0  0  0
 41 42  2  0  0  0  0
 42 30  1  0  0  0  0
M  END
>  <Mol Weight>
558.6198

>  <Formula>
C36H30O6

>  <chembl_id>
CHEMBL541005

$$$$

  Mrv0541 06201412482D          

 42 46  0  0  0  0            999 V2000
    5.0875  -16.7292    0.0000 C   0  0  0  0  0  0  0  0  0  0  0  0
    5.0875  -17.5542    0.0000 C   0  0  0  0  0  0  0  0  0  0  0  0
    5.7995  -17.9625    0.0000 C   0  0  0  0  0  0  0  0  0  0  0  0
    6.5115  -17.5542    0.0000 C   0  0  0  0  0  0  0  0  0  0  0  0
    4.3718  -16.3188    0.0000 O   0  0  0  0  0  0  0  0  0  0  0  0
    5.7995  -16.3125    0.0000 N   0  0  0  0  0  0  0  0  0  0  0  0
    6.5124  -16.7297    0.0000 C   0  0  0  0  0  0  0  0  0  0  0  0
    7.1295  -16.1807    0.0000 C   0  0  1  0  0  0  0  0  0  0  0  0
    6.7980  -15.4240    0.0000 C   0  0  2  0  0  0  0  0  0  0  0  0
    5.9761  -15.5056    0.0000 C   0  0  0  0  0  0  0  0  0  0  0  0
    7.2147  -14.7120    0.0000 O   0  0  0  0  0  0  0  0  0  0  0  0
    7.2083  -13.8833    0.0000 C   0  0  1  0  0  0  0  0  0  0  0  0
    7.9196  -13.4653    0.0000 C   0  0  0  0  0  0  0  0  0  0  0  0
    6.4907  -13.4763    0.0000 C   0  0  0  0  0  0  0  0  0  0  0  0
    8.6349  -13.8728    0.0000 C   0  0  0  0  0  0  0  0  0  0  0  0
    9.3457  -13.4555    0.0000 C   0  0  0  0  0  0  0  0  0  0  0  0
    9.3398  -12.6297    0.0000 C   0  0  0  0  0  0  0  0  0  0  0  0
    8.6172  -12.2229    0.0000 C   0  0  0  0  0  0  0  0  0  0  0  0
    7.9093  -12.6425    0.0000 C   0  0  0  0  0  0  0  0  0  0  0  0
    8.6079  -11.3979    0.0000 C   0  0  0  0  0  0  0  0  0  0  0  0
    9.3177  -10.9774    0.0000 F   0  0  0  0  0  0  0  0  0  0  0  0
    7.8888  -10.9935    0.0000 F   0  0  0  0  0  0  0  0  0  0  0  0
    8.6000  -10.5708    0.0000 F   0  0  0  0  0  0  0  0  0  0  0  0
   10.0631  -13.8629    0.0000 C   0  0  0  0  0  0  0  0  0  0  0  0
   10.0691  -14.6878    0.0000 F   0  0  0  0  0  0  0  0  0  0  0  0
   10.7746  -13.4452    0.0000 F   0  0  0  0  0  0  0  0  0  0  0  0
   10.7750  -14.2750    0.0000 F   0  0  0  0  0  0  0  0  0  0  0  0
    7.9312  -16.3553    0.0000 C   0  0  0  0  0  0  0  0  0  0  0  0
    8.1805  -17.1429    0.0000 C   0  0  0  0  0  0  0  0  0  0  0  0
    8.9856  -17.3194    0.0000 C   0  0  0  0  0  0  0  0  0  0  0  0
    9.5422  -16.7093    0.0000 C   0  0  0  0  0  0  0  0  0  0  0  0
    9.2881  -15.9199    0.0000 C   0  0  0  0  0  0  0  0  0  0  0  0
    8.4836  -15.7471    0.0000 C   0  0  0  0  0  0  0  0  0  0  0  0
   10.3484  -16.8845    0.0000 F   0  0  0  0  0  0  0  0  0  0  0  0
    5.7991  -18.7867    0.0000 C   0  0  0  0  0  0  0  0  0  0  0  0
    5.0830  -19.1985    0.0000 C   0  0  0  0  0  0  0  0  0  0  0  0
    5.0826  -20.0228    0.0000 C   0  0  0  0  0  0  0  0  0  0  0  0
    5.7976  -20.4361    0.0000 N   0  0  0  0  0  0  0  0  0  0  0  0
    6.5145  -20.0192    0.0000 C   0  0  0  0  0  0  0  0  0  0  0  0
    6.5113  -19.1963    0.0000 C   0  0  0  0  0  0  0  0  0  0  0  0
    4.3697  -20.4335    0.0000 O   0  0  0  0  0  0  0  0  0  0  0  0
    4.3693  -21.2585    0.0000 C   0  0  0  0  0  0  0  0  0  0  0  0
 18 20  1  0  0  0  0
  9 10  1  0  0  0  0
 20 21  1  0  0  0  0
 10  6  1  0  0  0  0
 20 22  1  0  0  0  0
 20 23  1  0  0  0  0
  9 11  1  6  0  0  0
 16 24  1  0  0  0  0
  1  5  2  0  0  0  0
 24 25  1  0  0  0  0
 11 12  1  0  0  0  0
 24 26  1  0  0  0  0
  6  7  1  0  0  0  0
 24 27  1  0  0  0  0
 12 13  1  0  0  0  0
  1  2  1  0  0  0  0
 28 29  2  0  0  0  0
 12 14  1  6  0  0  0
 29 30  1  0  0  0  0
  1  6  1  0  0  0  0
 30 31  2  0  0  0  0
 13 15  2  0  0  0  0
 31 32  1  0  0  0  0
  2  3  2  0  0  0  0
 32 33  2  0  0  0  0
 33 28  1  0  0  0  0
  8 28  1  1  0  0  0
 15 16  1  0  0  0  0
 31 34  1  0  0  0  0
  3  4  1  0  0  0  0
 16 17  2  0  0  0  0
 35 36  2  0  0  0  0
  4  7  1  0  0  0  0
 36 37  1  0  0  0  0
 17 18  1  0  0  0  0
 37 38  2  0  0  0  0
  7  8  1  0  0  0  0
 38 39  1  0  0  0  0
 18 19  2  0  0  0  0
 39 40  2  0  0  0  0
 40 35  1  0  0  0  0
  3 35  1  0  0  0  0
 19 13  1  0  0  0  0
  8  9  1  0  0  0  0
 41 42  1  0  0  0  0
 37 41  1  0  0  0  0
M  END
>  <Mol Weight>
594.5199

>  <Formula>
C30H25F7N2O3

>  <chembl_id>
CHEMBL1090651

$$$$

  Mrv0541 06201412482D          

 41 45  0  0  0  0            999 V2000
    5.3611   -0.9583    0.0000 N   0  0  0  0  0  0  0  0  0  0  0  0
    5.3599   -1.7857    0.0000 C   0  0  0  0  0  0  0  0  0  0  0  0
    6.0747   -2.1985    0.0000 N   0  0  0  0  0  0  0  0  0  0  0  0
    6.0729   -0.5455    0.0000 C   0  0  0  0  0  0  0  0  0  0  0  0
    6.7883   -0.9547    0.0000 C   0  0  0  0  0  0  0  0  0  0  0  0
    6.7886   -1.7857    0.0000 C   0  0  0  0  0  0  0  0  0  0  0  0
    7.5790   -2.0423    0.0000 N   0  0  0  0  0  0  0  0  0  0  0  0
    8.0674   -1.3698    0.0000 C   0  0  0  0  0  0  0  0  0  0  0  0
    7.5786   -0.6977    0.0000 N   0  0  0  0  0  0  0  0  0  0  0  0
    7.9607   -2.7736    0.0000 C   0  0  0  0  0  0  0  0  0  0  0  0
    7.5178   -3.4708    0.0000 C   0  0  0  0  0  0  0  0  0  0  0  0
    7.8981   -4.1989    0.0000 C   0  0  0  0  0  0  0  0  0  0  0  0
    8.7226   -4.2360    0.0000 C   0  0  0  0  0  0  0  0  0  0  0  0
    9.1655   -3.5388    0.0000 C   0  0  0  0  0  0  0  0  0  0  0  0
    8.7838   -2.8044    0.0000 O   0  0  0  0  0  0  0  0  0  0  0  0
    6.0705    0.2795    0.0000 N   0  0  0  0  0  0  0  0  0  0  0  0
    6.7837    0.6941    0.0000 C   0  0  0  0  0  0  0  0  0  0  0  0
    5.3548    0.6898    0.0000 C   0  0  0  0  0  0  0  0  0  0  0  0
    4.9404    1.4078    0.0000 C   0  0  0  0  0  0  0  0  0  0  0  0
    4.5300    0.6921    0.0000 C   0  0  0  0  0  0  0  0  0  0  0  0
    6.7812    1.5191    0.0000 C   0  0  0  0  0  0  0  0  0  0  0  0
    7.4945    1.9337    0.0000 N   0  0  0  0  0  0  0  0  0  0  0  0
    6.0655    1.9295    0.0000 O   0  0  0  0  0  0  0  0  0  0  0  0
    8.2102    1.5234    0.0000 C   0  0  2  0  0  0  0  0  0  0  0  0
    8.9234    1.9380    0.0000 C   0  0  0  0  0  0  0  0  0  0  0  0
    8.2126    0.6984    0.0000 C   0  0  0  0  0  0  0  0  0  0  0  0
    9.6391    1.5276    0.0000 O   0  0  0  0  0  0  0  0  0  0  0  0
    8.9209    2.7630    0.0000 O   0  0  0  0  0  0  0  0  0  0  0  0
   10.3523    1.9423    0.0000 C   0  0  0  0  0  0  0  0  0  0  0  0
   11.0680    1.5319    0.0000 C   0  0  0  0  0  0  0  0  0  0  0  0
   11.0664    0.7072    0.0000 C   0  0  0  0  0  0  0  0  0  0  0  0
   11.7812    0.2970    0.0000 C   0  0  0  0  0  0  0  0  0  0  0  0
   12.4954    0.7116    0.0000 C   0  0  0  0  0  0  0  0  0  0  0  0
   12.4903    1.5409    0.0000 C   0  0  0  0  0  0  0  0  0  0  0  0
   11.7749    1.9475    0.0000 C   0  0  0  0  0  0  0  0  0  0  0  0
    8.9283    0.2880    0.0000 C   0  0  0  0  0  0  0  0  0  0  0  0
    8.9308   -0.5370    0.0000 C   0  0  0  0  0  0  0  0  0  0  0  0
    9.6465   -0.9474    0.0000 N   0  0  0  0  0  0  0  0  0  0  0  0
    9.6490   -1.7724    0.0000 C   0  0  0  0  0  0  0  0  0  0  0  0
   10.3647   -2.1827    0.0000 N   0  0  0  0  0  0  0  0  0  0  0  0
    8.9357   -2.1870    0.0000 N   0  0  0  0  0  0  0  0  0  0  0  0
 18 20  1  0  0  0  0
  8  9  2  0  0  0  0
  9  5  1  0  0  0  0
 10 11  1  0  0  0  0
 17 21  1  0  0  0  0
  4  1  1  0  0  0  0
 21 22  1  0  0  0  0
  5  6  1  0  0  0  0
 21 23  2  0  0  0  0
 22 24  1  0  0  0  0
  2  3  1  0  0  0  0
 24 25  1  0  0  0  0
  3  6  2  0  0  0  0
 24 26  1  6  0  0  0
  1  2  2  0  0  0  0
 25 27  1  0  0  0  0
 10 15  1  0  0  0  0
 25 28  2  0  0  0  0
 11 12  1  0  0  0  0
 27 29  1  0  0  0  0
 12 13  1  0  0  0  0
 29 30  1  0  0  0  0
 13 14  1  0  0  0  0
 30 31  2  0  0  0  0
 14 15  1  0  0  0  0
 31 32  1  0  0  0  0
  7 10  1  0  0  0  0
 32 33  2  0  0  0  0
  5  4  2  0  0  0  0
 33 34  1  0  0  0  0
  4 16  1  0  0  0  0
 34 35  2  0  0  0  0
 35 30  1  0  0  0  0
  6  7  1  0  0  0  0
 26 36  1  0  0  0  0
 16 17  1  0  0  0  0
 36 37  1  0  0  0  0
  7  8  1  0  0  0  0
 37 38  1  0  0  0  0
 16 18  1  0  0  0  0
 38 39  1  0  0  0  0
 19 18  1  0  0  0  0
 39 40  1  0  0  0  0
 20 19  1  0  0  0  0
 39 41  2  0  0  0  0
M  END
>  <Mol Weight>
563.6513

>  <Formula>
C28H37N9O4

>  <chembl_id>
CHEMBL592975

$$$$

  Mrv0541 06201412482D          

 49 54  0  0  0  0            999 V2000
   21.2570  -11.7467    0.0000 C   0  0  0  0  0  0  0  0  0  0  0  0
   21.2546  -10.9230    0.0000 O   0  0  0  0  0  0  0  0  0  0  0  0
   20.5434  -12.1607    0.0000 C   0  0  0  0  0  0  0  0  0  0  0  0
   19.8316  -11.7508    0.0000 C   0  0  0  0  0  0  0  0  0  0  0  0
   19.1181  -12.1649    0.0000 C   0  0  0  0  0  0  0  0  0  0  0  0
   19.1205  -12.9885    0.0000 C   0  0  0  0  0  0  0  0  0  0  0  0
   19.8322  -13.3983    0.0000 C   0  0  0  0  0  0  0  0  0  0  0  0
   20.5458  -12.9843    0.0000 C   0  0  0  0  0  0  0  0  0  0  0  0
   21.9730  -12.1566    0.0000 O   0  0  0  0  0  0  0  0  0  0  0  0
   27.7660   -9.2857    0.0000 C   0  0  0  0  0  0  0  0  0  0  0  0
   28.5393   -9.0083    0.0000 C   0  0  2  0  0  0  0  0  0  0  0  0
   28.5173   -8.1867    0.0000 O   0  0  0  0  0  0  0  0  0  0  0  0
   27.7242   -7.9508    0.0000 C   0  0  0  0  0  0  0  0  0  0  0  0
   27.2613   -8.6339    0.0000 C   0  0  1  0  0  0  0  0  0  0  0  0
   27.4456   -7.1767    0.0000 O   0  0  0  0  0  0  0  0  0  0  0  0
   22.6821  -10.9309    0.0000 C   0  0  0  0  0  0  0  0  0  0  0  0
   22.6845  -11.7534    0.0000 C   0  0  1  0  0  0  0  0  0  0  0  0
   23.3959  -12.1636    0.0000 C   0  0  0  0  0  0  0  0  0  0  0  0
   23.3953  -10.5123    0.0000 C   0  0  0  0  0  0  0  0  0  0  0  0
   24.1088  -10.9310    0.0000 C   0  0  1  0  0  0  0  0  0  0  0  0
   24.1136  -11.7534    0.0000 C   0  0  1  0  0  0  0  0  0  0  0  0
   24.8228  -12.1617    0.0000 C   0  0  0  0  0  0  0  0  0  0  0  0
   25.5396  -11.7514    0.0000 C   0  0  0  0  0  0  0  0  0  0  0  0
   24.8195  -10.5104    0.0000 C   0  0  2  0  0  0  0  0  0  0  0  0
   25.5343  -10.9231    0.0000 C   0  0  2  0  0  0  0  0  0  0  0  0
   25.5267   -9.2764    0.0000 C   0  0  0  0  0  0  0  0  0  0  0  0
   24.8127   -9.6889    0.0000 C   0  0  0  0  0  0  0  0  0  0  0  0
   26.2416   -9.6870    0.0000 C   0  0  1  0  0  0  0  0  0  0  0  0
   26.2432  -10.5123    0.0000 C   0  0  1  0  0  0  0  0  0  0  0  0
   27.0322  -10.7661    0.0000 C   0  0  0  0  0  0  0  0  0  0  0  0
   27.5163  -10.0929    0.0000 C   0  0  0  0  0  0  0  0  0  0  0  0
   27.0272   -9.4307    0.0000 C   0  0  2  0  0  0  0  0  0  0  0  0
   24.0999  -10.1022    0.0000 C   0  0  0  0  0  0  0  0  0  0  0  0
   25.5246  -10.0927    0.0000 C   0  0  0  0  0  0  0  0  0  0  0  0
   24.8149  -11.3347    0.0000 H   0  0  0  0  0  0  0  0  0  0  0  0
   26.2394  -11.3359    0.0000 H   0  0  0  0  0  0  0  0  0  0  0  0
   26.0218   -8.8867    0.0000 H   0  0  0  0  0  0  0  0  0  0  0  0
   29.2225   -9.4741    0.0000 C   0  0  0  0  0  0  0  0  0  0  0  0
   29.9676   -9.1168    0.0000 C   0  0  0  0  0  0  0  0  0  0  0  0
   30.6510   -9.5826    0.0000 C   0  0  0  0  0  0  0  0  0  0  0  0
   30.0337   -8.2935    0.0000 C   0  0  0  0  0  0  0  0  0  0  0  0
   23.9783  -12.7446    0.0000 C   0  0  0  0  0  0  0  0  0  0  0  0
   22.8073  -12.7480    0.0000 C   0  0  0  0  0  0  0  0  0  0  0  0
   24.3262  -12.5470    0.0000 H   0  0  0  0  0  0  0  0  0  0  0  0
   27.8237   -9.6413    0.0000 H   0  0  0  0  0  0  0  0  0  0  0  0
   18.4037  -11.7546    0.0000 N   0  3  0  0  0  0  0  0  0  0  0  0
   17.6872  -12.1681    0.0000 O   0  0  0  0  0  0  0  0  0  0  0  0
   18.3975  -10.9307    0.0000 O   0  5  0  0  0  0  0  0  0  0  0  0
   26.4360   -8.6624    0.0000 O   0  0  0  0  0  0  0  0  0  0  0  0
  4  5  1  0  0  0  0
  5  6  2  0  0  0  0
  6  7  1  0  0  0  0
  7  8  2  0  0  0  0
  8  3  1  0  0  0  0
  1  9  1  0  0  0  0
 10 11  1  0  0  0  0
 11 12  1  0  0  0  0
 12 13  1  0  0  0  0
 13 14  1  0  0  0  0
 14 10  1  0  0  0  0
 13 15  2  0  0  0  0
 16 17  1  0  0  0  0
 16 19  1  0  0  0  0
 17 18  1  0  0  0  0
 18 21  1  0  0  0  0
 20 19  1  0  0  0  0
 20 21  1  0  0  0  0
 20 24  1  0  0  0  0
 21 22  1  0  0  0  0
 22 23  1  0  0  0  0
 23 25  1  0  0  0  0
 24 25  1  0  0  0  0
 24 27  1  0  0  0  0
 25 29  1  0  0  0  0
 28 26  1  0  0  0  0
 26 27  1  0  0  0  0
 28 29  1  0  0  0  0
 29 30  1  0  0  0  0
 30 31  1  0  0  0  0
 31 32  1  0  0  0  0
 32 28  1  0  0  0  0
 20 33  1  1  0  0  0
 25 34  1  1  0  0  0
 24 35  1  6  0  0  0
 29 36  1  6  0  0  0
 32 14  1  0  0  0  0
 28 37  1  1  0  0  0
 11 38  1  6  0  0  0
 38 39  2  0  0  0  0
 39 40  1  0  0  0  0
 39 41  1  0  0  0  0
 18 42  1  0  0  0  0
 18 43  1  0  0  0  0
 21 44  1  6  0  0  0
 32 45  1  6  0  0  0
 17  9  1  1  0  0  0
  5 46  1  0  0  0  0
  1  2  2  0  0  0  0
  1  3  1  0  0  0  0
 46 47  2  0  0  0  0
 46 48  1  0  0  0  0
  3  4  2  0  0  0  0
 14 49  1  1  0  0  0
M  CHG  2  46   1  48  -1
M  END
>  <Mol Weight>
607.7768

>  <Formula>
C36H49NO7

>  <chembl_id>
CHEMBL1163235

$$$$

  Mrv0541 06201412482D          

 45 49  0  0  0  0            999 V2000
    0.0410  -10.3579    0.0000 N   0  0  0  0  0  0  0  0  0  0  0  0
   -0.2037   -9.4478    0.0000 C   0  0  0  0  0  0  0  0  0  0  0  0
   -1.0187   -9.1739    0.0000 C   0  0  0  0  0  0  0  0  0  0  0  0
   -1.1852   -8.3287    0.0000 C   0  0  0  0  0  0  0  0  0  0  0  0
   -1.9992   -8.0544    0.0000 C   0  0  0  0  0  0  0  0  0  0  0  0
   -2.6450   -8.6236    0.0000 C   0  0  0  0  0  0  0  0  0  0  0  0
   -2.4714   -9.4700    0.0000 C   0  0  0  0  0  0  0  0  0  0  0  0
   -1.6575   -9.7404    0.0000 C   0  0  0  0  0  0  0  0  0  0  0  0
    2.6891   -9.3651    0.0000 C   0  0  0  0  0  0  0  0  0  0  0  0
    3.5123   -9.3304    0.0000 C   0  0  0  0  0  0  0  0  0  0  0  0
    2.1967  -10.0285    0.0000 C   0  0  1  0  0  0  0  0  0  0  0  0
    2.4170  -10.8261    0.0000 C   0  0  1  0  0  0  0  0  0  0  0  0
    3.1725  -11.1522    0.0000 C   0  0  0  0  0  0  0  0  0  0  0  0
    4.0457   -9.9601    0.0000 C   0  0  2  0  0  0  0  0  0  0  0  0
    3.9050  -10.7707    0.0000 N   0  0  0  0  0  0  0  0  0  0  0  0
    4.6234  -11.1570    0.0000 C   0  0  1  0  0  0  0  0  0  0  0  0
    5.2201  -10.5872    0.0000 C   0  0  0  0  0  0  0  0  0  0  0  0
    4.8580   -9.8480    0.0000 C   0  0  0  0  0  0  0  0  0  0  0  0
    3.2052  -11.9747    0.0000 O   0  0  0  0  0  0  0  0  0  0  0  0
    1.7885  -11.3696    0.0000 N   0  0  0  0  0  0  0  0  0  0  0  0
    1.8101  -12.1927    0.0000 C   0  0  0  0  0  0  0  0  0  0  0  0
    1.1062  -12.6202    0.0000 C   0  0  1  0  0  0  0  0  0  0  0  0
    2.5365  -12.5888    0.0000 O   0  0  0  0  0  0  0  0  0  0  0  0
    0.3799  -12.2241    0.0000 N   0  0  0  0  0  0  0  0  0  0  0  0
    1.1228  -13.4488    0.0000 C   0  0  0  0  0  0  0  0  0  0  0  0
    0.4187  -13.8760    0.0000 C   0  0  0  0  0  0  0  0  0  0  0  0
    4.0419   -9.1335    0.0000 H   0  0  0  0  0  0  0  0  0  0  0  0
    4.6217  -11.9807    0.0000 C   0  0  0  0  0  0  0  0  0  0  0  0
    3.8999  -12.3890    0.0000 O   0  0  0  0  0  0  0  0  0  0  0  0
    5.3308  -12.4014    0.0000 N   0  0  0  0  0  0  0  0  0  0  0  0
    5.3293  -13.2249    0.0000 C   0  0  0  0  0  0  0  0  0  0  0  0
    6.0381  -13.6400    0.0000 C   0  0  0  0  0  0  0  0  0  0  0  0
    6.0280  -14.4701    0.0000 C   0  0  0  0  0  0  0  0  0  0  0  0
    7.4565  -14.4816    0.0000 C   0  0  0  0  0  0  0  0  0  0  0  0
    7.4607  -13.6567    0.0000 C   0  0  0  0  0  0  0  0  0  0  0  0
    6.7372  -14.8907    0.0000 C   0  0  0  0  0  0  0  0  0  0  0  0
    6.7512  -13.2356    0.0000 C   0  0  0  0  0  0  0  0  0  0  0  0
    4.6074  -13.6332    0.0000 C   0  0  0  0  0  0  0  0  0  0  0  0
    3.8980  -13.2134    0.0000 C   0  0  0  0  0  0  0  0  0  0  0  0
    3.1717  -14.4408    0.0000 C   0  0  0  0  0  0  0  0  0  0  0  0
    3.8863  -14.8589    0.0000 C   0  0  0  0  0  0  0  0  0  0  0  0
    3.1791  -13.6169    0.0000 C   0  0  0  0  0  0  0  0  0  0  0  0
    4.6079  -14.4532    0.0000 C   0  0  0  0  0  0  0  0  0  0  0  0
    1.3869   -9.8779    0.0000 C   0  0  0  0  0  0  0  0  0  0  0  0
    0.8508  -10.5049    0.0000 C   0  0  0  0  0  0  0  0  0  0  0  0
  1  2  1  0  0  0  0
  3  4  2  0  0  0  0
  2  3  1  0  0  0  0
  4  5  1  0  0  0  0
  5  6  2  0  0  0  0
  6  7  1  0  0  0  0
  7  8  2  0  0  0  0
  8  3  1  0  0  0  0
 16 28  1  1  0  0  0
 15 16  1  0  0  0  0
 28 29  2  0  0  0  0
 16 17  1  0  0  0  0
 28 30  1  0  0  0  0
 17 18  1  0  0  0  0
 30 31  1  0  0  0  0
 18 14  1  0  0  0  0
 31 32  1  0  0  0  0
 32 33  2  0  0  0  0
 11 12  1  0  0  0  0
 34 35  1  0  0  0  0
 13 19  2  0  0  0  0
 12 20  1  1  0  0  0
 15 13  1  0  0  0  0
 32 37  1  0  0  0  0
 33 36  1  0  0  0  0
 36 34  2  0  0  0  0
 35 37  2  0  0  0  0
 20 21  1  0  0  0  0
 31 38  1  0  0  0  0
 38 39  2  0  0  0  0
 12 13  1  0  0  0  0
 40 41  1  0  0  0  0
 21 22  1  0  0  0  0
 14 15  1  0  0  0  0
 21 23  2  0  0  0  0
  9 10  1  0  0  0  0
 38 43  1  0  0  0  0
 39 42  1  0  0  0  0
 42 40  2  0  0  0  0
 41 43  2  0  0  0  0
 22 24  1  0  0  0  0
 11 44  1  1  0  0  0
 10 14  1  0  0  0  0
 22 25  1  6  0  0  0
 25 26  1  0  0  0  0
  9 11  1  0  0  0  0
 14 27  1  6  0  0  0
 44 45  1  0  0  0  0
 45  1  1  0  0  0  0
M  END
>  <Mol Weight>
595.7742

>  <Formula>
C36H45N5O3

>  <chembl_id>
CHEMBL575370

$$$$

  Mrv0541 06201412482D          

 43 44  0  0  0  0            999 V2000
    1.0156   -9.6701    0.0000 C   0  0  1  0  0  0  0  0  0  0  0  0
    0.7589  -10.4554    0.0000 C   0  0  0  0  0  0  0  0  0  0  0  0
   -0.0802  -10.4846    0.0000 N   0  0  0  0  0  0  0  0  0  0  0  0
   -0.3459  -11.2651    0.0000 C   0  0  2  0  0  0  0  0  0  0  0  0
   -1.1773  -11.2675    0.0000 C   0  0  0  0  0  0  0  0  0  0  0  0
   -1.4437  -10.4845    0.0000 N   0  0  0  0  0  0  0  0  0  0  0  0
   -2.2581  -10.4550    0.0000 C   0  0  1  0  0  0  0  0  0  0  0  0
   -2.5018   -9.6759    0.0000 C   0  0  0  0  0  0  0  0  0  0  0  0
   -1.8499   -9.1916    0.0000 N   0  0  0  0  0  0  0  0  0  0  0  0
   -2.0935   -8.4166    0.0000 C   0  0  2  0  0  0  0  0  0  0  0  0
   -1.4458   -7.9242    0.0000 C   0  0  0  0  0  0  0  0  0  0  0  0
   -0.7647   -8.3790    0.0000 N   0  0  0  0  0  0  0  0  0  0  0  0
   -0.1076   -7.8955    0.0000 C   0  0  1  0  0  0  0  0  0  0  0  0
    0.5793   -8.3903    0.0000 C   0  0  0  0  0  0  0  0  0  0  0  0
    0.3467   -9.1762    0.0000 N   0  0  0  0  0  0  0  0  0  0  0  0
    1.3602   -8.1201    0.0000 O   0  0  0  0  0  0  0  0  0  0  0  0
   -0.1106   -7.0702    0.0000 C   0  0  0  0  0  0  0  0  0  0  0  0
   -1.4710   -7.0993    0.0000 O   0  0  0  0  0  0  0  0  0  0  0  0
   -2.8801   -8.1638    0.0000 C   0  0  0  0  0  0  0  0  0  0  0  0
   -3.0558   -7.3576    0.0000 C   0  0  0  0  0  0  0  0  0  0  0  0
   -3.2826   -9.4219    0.0000 O   0  0  0  0  0  0  0  0  0  0  0  0
   -2.7616  -11.1109    0.0000 C   0  0  0  0  0  0  0  0  0  0  0  0
   -3.5799  -11.0043    0.0000 C   0  0  0  0  0  0  0  0  0  0  0  0
   -4.0791  -11.6603    0.0000 C   0  0  0  0  0  0  0  0  0  0  0  0
   -3.8946  -10.2419    0.0000 C   0  0  0  0  0  0  0  0  0  0  0  0
   -1.6537  -11.9403    0.0000 O   0  0  0  0  0  0  0  0  0  0  0  0
    0.1365  -11.9365    0.0000 C   0  0  0  0  0  0  0  0  0  0  0  0
   -0.2063  -12.6886    0.0000 C   0  0  0  0  0  0  0  0  0  0  0  0
   -1.0245  -12.7704    0.0000 C   0  0  0  0  0  0  0  0  0  0  0  0
   -0.8884  -14.1926    0.0000 C   0  0  0  0  0  0  0  0  0  0  0  0
   -0.0660  -14.1138    0.0000 C   0  0  0  0  0  0  0  0  0  0  0  0
   -1.3635  -13.5184    0.0000 C   0  0  0  0  0  0  0  0  0  0  0  0
    0.2812  -13.3608    0.0000 C   0  0  0  0  0  0  0  0  0  0  0  0
    1.2577  -11.1149    0.0000 O   0  0  0  0  0  0  0  0  0  0  0  0
    1.8012   -9.4184    0.0000 C   0  0  0  0  0  0  0  0  0  0  0  0
    0.5990   -6.6571    0.0000 C   0  0  0  0  0  0  0  0  0  0  0  0
   -0.8231   -6.6623    0.0000 C   0  0  0  0  0  0  0  0  0  0  0  0
    2.4091   -9.9705    0.0000 C   0  0  0  0  0  0  0  0  0  0  0  0
   -2.4409   -6.8011    0.0000 C   0  0  0  0  0  0  0  0  0  0  0  0
   -3.8386   -7.1070    0.0000 C   0  0  0  0  0  0  0  0  0  0  0  0
    3.1865   -9.7179    0.0000 C   0  0  0  0  0  0  0  0  0  0  0  0
    2.2367  -10.7732    0.0000 C   0  0  0  0  0  0  0  0  0  0  0  0
   -0.9537   -9.8258    0.0000 C   0  0  0  0  0  0  0  0  0  0  0  0
  3  4  1  0  0  0  0
  7 22  1  6  0  0  0
  8  9  1  0  0  0  0
 22 23  1  0  0  0  0
  9 10  1  0  0  0  0
 23 24  1  0  0  0  0
 10 11  1  0  0  0  0
 23 25  1  0  0  0  0
  7  8  1  0  0  0  0
  5 26  2  0  0  0  0
 12 13  1  0  0  0  0
  4 27  1  1  0  0  0
 13 14  1  0  0  0  0
 27 28  1  0  0  0  0
 28 29  2  0  0  0  0
 14 15  1  0  0  0  0
 30 31  1  0  0  0  0
 11 12  1  0  0  0  0
  1 15  1  0  0  0  0
 14 16  2  0  0  0  0
 28 33  1  0  0  0  0
 29 32  1  0  0  0  0
 32 30  2  0  0  0  0
 31 33  2  0  0  0  0
  1  2  1  0  0  0  0
  2 34  2  0  0  0  0
 13 17  1  6  0  0  0
  1 35  1  1  0  0  0
  2  3  1  0  0  0  0
 17 36  1  0  0  0  0
 11 18  2  0  0  0  0
 17 37  1  0  0  0  0
  4  5  1  0  0  0  0
 35 38  1  0  0  0  0
 20 39  1  0  0  0  0
 10 19  1  1  0  0  0
  5  6  1  0  0  0  0
 20 40  1  0  0  0  0
 19 20  1  0  0  0  0
 41 38  1  0  0  0  0
  6  7  1  0  0  0  0
 38 42  1  0  0  0  0
  8 21  2  0  0  0  0
  6 43  1  0  0  0  0
M  END
>  <Mol Weight>
599.8044

>  <Formula>
C33H53N5O5

>  <chembl_id>
CHEMBL575372

$$$$

  Mrv0541 06201412482D          

 39 40  0  0  0  0            999 V2000
   -0.4336   -1.1016    0.0000 C   0  0  0  0  0  0  0  0  0  0  0  0
   -2.7077    1.3524    0.0000 C   0  0  0  0  0  0  0  0  0  0  0  0
    2.8487   -1.7502    0.0000 C   0  0  0  0  0  0  0  0  0  0  0  0
   -3.5147    1.1809    0.0000 N   0  0  0  0  0  0  0  0  0  0  0  0
   -0.9856   -1.7147    0.0000 N   0  0  0  0  0  0  0  0  0  0  0  0
    2.7624   -2.5707    0.0000 N   0  0  0  0  0  0  0  0  0  0  0  0
    0.3869   -1.1878    0.0000 C   0  0  0  0  0  0  0  0  0  0  0  0
   -2.0946    0.8004    0.0000 C   0  0  0  0  0  0  0  0  0  0  0  0
    1.5429   -2.0277    0.0000 C   0  0  0  0  0  0  0  0  0  0  0  0
   -1.6530   -0.5586    0.0000 C   0  0  0  0  0  0  0  0  0  0  0  0
   -3.3751    2.5084    0.0000 C   0  0  0  0  0  0  0  0  0  0  0  0
   -2.6215    2.1729    0.0000 C   0  0  0  0  0  0  0  0  0  0  0  0
   -0.8461   -0.3871    0.0000 C   0  0  0  0  0  0  0  0  0  0  0  0
    2.0950   -1.4146    0.0000 C   0  0  0  0  0  0  0  0  0  0  0  0
    1.9554   -2.7422    0.0000 C   0  0  0  0  0  0  0  0  0  0  0  0
   -3.9272    1.8954    0.0000 C   0  0  0  0  0  0  0  0  0  0  0  0
   -1.7393   -1.3791    0.0000 C   0  0  0  0  0  0  0  0  0  0  0  0
   -4.3313    3.5704    0.0000 C   0  0  0  0  0  0  0  0  0  0  0  0
   -2.2661   -0.0066    0.0000 N   0  0  0  0  0  0  0  0  0  0  0  0
    0.7225   -1.9415    0.0000 N   0  0  0  0  0  0  0  0  0  0  0  0
    3.5631   -1.3377    0.0000 C   0  0  0  0  0  0  0  0  0  0  0  0
   -3.5467    3.3154    0.0000 N   0  0  0  0  0  0  0  0  0  0  0  0
   -4.5028    4.3773    0.0000 C   0  0  0  0  0  0  0  0  0  0  0  0
    6.4210   -1.3377    0.0000 C   0  0  0  0  0  0  0  0  0  0  0  0
   -1.3100    1.0553    0.0000 O   0  0  0  0  0  0  0  0  0  0  0  0
    0.8718   -0.5204    0.0000 O   0  0  0  0  0  0  0  0  0  0  0  0
    7.1355   -1.7502    0.0000 N   0  0  0  0  0  0  0  0  0  0  0  0
   -4.9444    3.0183    0.0000 O   0  0  0  0  0  0  0  0  0  0  0  0
    5.7065   -1.7502    0.0000 C   0  0  0  0  0  0  0  0  0  0  0  0
    3.5631   -0.5127    0.0000 O   0  0  0  0  0  0  0  0  0  0  0  0
    4.2776   -1.7502    0.0000 N   0  0  0  0  0  0  0  0  0  0  0  0
   -5.2874    4.6323    0.0000 C   0  0  0  0  0  0  0  0  0  0  0  0
   -3.8897    4.9294    0.0000 F   0  0  0  0  0  0  0  0  0  0  0  0
    6.4210   -0.5127    0.0000 N   0  0  0  0  0  0  0  0  0  0  0  0
    4.9921   -1.3377    0.0000 C   0  0  0  0  0  0  0  0  0  0  0  0
   -0.8141   -2.5216    0.0000 C   0  0  0  0  0  0  0  0  0  0  0  0
    3.3755   -3.1227    0.0000 C   0  0  0  0  0  0  0  0  0  0  0  0
   -3.8502    0.4272    0.0000 C   0  0  0  0  0  0  0  0  0  0  0  0
    9.3748    0.0000    0.0000 Cl  0  0  0  0  0  0  0  0  0  0  0  0
  2  4  1  0  0  0  0
  1  5  1  0  0  0  0
  3  6  1  0  0  0  0
  1  7  1  0  0  0  0
  2  8  1  0  0  0  0
  2 12  2  0  0  0  0
 11 12  1  0  0  0  0
  1 13  2  0  0  0  0
 10 13  1  0  0  0  0
  3 14  2  0  0  0  0
  9 14  1  0  0  0  0
  6 15  1  0  0  0  0
  9 15  2  0  0  0  0
  4 16  1  0  0  0  0
 11 16  2  0  0  0  0
  5 17  1  0  0  0  0
 10 17  2  0  0  0  0
  8 19  1  0  0  0  0
 10 19  1  0  0  0  0
  7 20  1  0  0  0  0
  9 20  1  0  0  0  0
  3 21  1  0  0  0  0
 11 22  1  0  0  0  0
 18 22  1  0  0  0  0
 18 23  1  0  0  0  0
  8 25  2  0  0  0  0
  7 26  2  0  0  0  0
 24 27  2  0  0  0  0
 18 28  2  0  0  0  0
 24 29  1  0  0  0  0
 21 30  2  0  0  0  0
 21 31  1  0  0  0  0
 23 32  2  0  0  0  0
 23 33  1  0  0  0  0
 24 34  1  0  0  0  0
 29 35  1  0  0  0  0
 31 35  1  0  0  0  0
  5 36  1  0  0  0  0
  6 37  1  0  0  0  0
  4 38  1  0  0  0  0
M  END
>  <Mol Weight>
561.996

>  <Formula>
C24H29ClFN9O4

>  <chembl_id>
CHEMBL564096

$$$$

  Mrv0541 06201412482D          

 27 30  0  0  0  0            999 V2000
    4.7063   -3.5293    0.0000 N   0  0  0  0  0  0  0  0  0  0  0  0
    4.7085   -4.3501    0.0000 C   0  0  0  0  0  0  0  0  0  0  0  0
    3.9982   -4.7660    0.0000 C   0  0  0  0  0  0  0  0  0  0  0  0
    3.2859   -4.3491    0.0000 C   0  0  0  0  0  0  0  0  0  0  0  0
    2.5736   -4.7660    0.0000 C   0  0  0  0  0  0  0  0  0  0  0  0
    2.5736   -5.5914    0.0000 C   0  0  0  0  0  0  0  0  0  0  0  0
    3.2859   -5.9998    0.0000 C   0  0  0  0  0  0  0  0  0  0  0  0
    3.9993   -5.5914    0.0000 C   0  0  0  0  0  0  0  0  0  0  0  0
    4.7106   -6.0009    0.0000 N   0  0  0  0  0  0  0  0  0  0  0  0
    5.4247   -5.5916    0.0000 C   0  0  0  0  0  0  0  0  0  0  0  0
    6.1374   -6.0027    0.0000 C   0  0  0  0  0  0  0  0  0  0  0  0
    6.8544   -5.5911    0.0000 C   0  0  0  0  0  0  0  0  0  0  0  0
    6.8541   -4.7637    0.0000 C   0  0  0  0  0  0  0  0  0  0  0  0
    6.1369   -4.3479    0.0000 C   0  0  0  0  0  0  0  0  0  0  0  0
    5.4244   -4.7642    0.0000 C   0  0  0  0  0  0  0  0  0  0  0  0
    7.5651   -4.3538    0.0000 C   0  0  0  0  0  0  0  0  0  0  0  0
    8.2757   -4.7646    0.0000 O   0  0  0  0  0  0  0  0  0  0  0  0
    7.5657   -3.5330    0.0000 N   0  0  0  0  0  0  0  0  0  0  0  0
    8.2768   -3.1231    0.0000 C   0  0  0  0  0  0  0  0  0  0  0  0
    8.9898   -3.5382    0.0000 C   0  0  0  0  0  0  0  0  0  0  0  0
    9.7009   -3.1284    0.0000 C   0  0  0  0  0  0  0  0  0  0  0  0
   10.4102   -3.5413    0.0000 I   0  0  0  0  0  0  0  0  0  0  0  0
    9.7062   -2.3076    0.0000 C   0  0  0  0  0  0  0  0  0  0  0  0
   10.4191   -1.9009    0.0000 O   0  0  0  0  0  0  0  0  0  0  0  0
    8.9933   -1.8925    0.0000 C   0  0  0  0  0  0  0  0  0  0  0  0
    8.9987   -1.0717    0.0000 I   0  0  0  0  0  0  0  0  0  0  0  0
    8.2749   -2.2981    0.0000 C   0  0  0  0  0  0  0  0  0  0  0  0
  1  2  1  0  0  0  0
  2 15  2  0  0  0  0
  2  3  1  0  0  0  0
  3  8  2  0  0  0  0
  3  4  1  0  0  0  0
  4  5  1  0  0  0  0
  5  6  1  0  0  0  0
  6  7  1  0  0  0  0
  7  8  1  0  0  0  0
  8  9  1  0  0  0  0
  9 10  2  0  0  0  0
 10 15  1  0  0  0  0
 10 11  1  0  0  0  0
 11 12  2  0  0  0  0
 12 13  1  0  0  0  0
 13 14  2  0  0  0  0
 14 15  1  0  0  0  0
 13 16  1  0  0  0  0
 16 17  2  0  0  0  0
 16 18  1  0  0  0  0
 18 19  1  0  0  0  0
 19 27  2  0  0  0  0
 19 20  1  0  0  0  0
 20 21  2  0  0  0  0
 21 22  1  0  0  0  0
 21 23  1  0  0  0  0
 23 24  1  0  0  0  0
 23 25  2  0  0  0  0
 25 26  1  0  0  0  0
 25 27  1  0  0  0  0
M  END
>  <Mol Weight>
585.1768

>  <Formula>
C20H17I2N3O2

>  <chembl_id>
CHEMBL582239

$$$$

  Mrv0541 06201412482D          

 43 47  0  0  0  0            999 V2000
    7.2795   -7.9015    0.0000 C   0  0  1  0  0  0  0  0  0  0  0  0
    8.1052   -7.9389    0.0000 C   0  0  2  0  0  0  0  0  0  0  0  0
    8.4005   -7.1657    0.0000 C   0  0  1  0  0  0  0  0  0  0  0  0
    7.7518   -6.6507    0.0000 O   0  0  0  0  0  0  0  0  0  0  0  0
    7.0637   -7.1052    0.0000 C   0  0  2  0  0  0  0  0  0  0  0  0
    9.1985   -6.9485    0.0000 N   0  0  0  0  0  0  0  0  0  0  0  0
    9.8939   -7.3968    0.0000 C   0  0  0  0  0  0  0  0  0  0  0  0
   10.6231   -7.0245    0.0000 N   0  0  0  0  0  0  0  0  0  0  0  0
   10.6679   -6.1989    0.0000 C   0  0  0  0  0  0  0  0  0  0  0  0
    9.9772   -5.7469    0.0000 C   0  0  0  0  0  0  0  0  0  0  0  0
    9.2375   -6.1245    0.0000 C   0  0  0  0  0  0  0  0  0  0  0  0
    9.8513   -8.2222    0.0000 O   0  0  0  0  0  0  0  0  0  0  0  0
   11.4053   -5.8220    0.0000 O   0  0  0  0  0  0  0  0  0  0  0  0
    6.2888   -6.8161    0.0000 C   0  0  0  0  0  0  0  0  0  0  0  0
    8.5612   -8.6302    0.0000 O   0  0  0  0  0  0  0  0  0  0  0  0
    6.7656   -8.5478    0.0000 O   0  0  0  0  0  0  0  0  0  0  0  0
    5.5527   -7.1906    0.0000 N   0  0  0  0  0  0  0  0  0  0  0  0
    4.8580   -6.7439    0.0000 C   0  0  0  0  0  0  0  0  0  0  0  0
    4.8997   -5.9185    0.0000 O   0  0  0  0  0  0  0  0  0  0  0  0
    4.1272   -7.1248    0.0000 C   0  0  1  0  0  0  0  0  0  0  0  0
    3.4356   -6.6720    0.0000 N   0  0  0  0  0  0  0  0  0  0  0  0
    2.7908   -7.1907    0.0000 C   0  0  0  0  0  0  0  0  0  0  0  0
    3.0845   -7.9630    0.0000 C   0  0  0  0  0  0  0  0  0  0  0  0
    3.9103   -7.9226    0.0000 C   0  0  0  0  0  0  0  0  0  0  0  0
    3.4343   -5.8505    0.0000 C   0  0  0  0  0  0  0  0  0  0  0  0
    4.1476   -5.4410    0.0000 O   0  0  0  0  0  0  0  0  0  0  0  0
    2.7233   -5.4374    0.0000 C   0  0  1  0  0  0  0  0  0  0  0  0
    2.6388   -4.6211    0.0000 N   0  0  0  0  0  0  0  0  0  0  0  0
    1.8350   -4.4481    0.0000 C   0  0  1  0  0  0  0  0  0  0  0  0
    2.6880   -6.2562    0.0000 C   0  0  0  0  0  0  0  0  0  0  0  0
    1.9709   -5.7717    0.0000 C   0  0  2  0  0  0  0  0  0  0  0  0
    1.4209   -5.1618    0.0000 C   0  0  1  0  0  0  0  0  0  0  0  0
    0.6711   -5.4962    0.0000 C   0  0  0  0  0  0  0  0  0  0  0  0
    0.7574   -6.3130    0.0000 N   0  0  0  0  0  0  0  0  0  0  0  0
    1.5606   -6.4830    0.0000 C   0  0  0  0  0  0  0  0  0  0  0  0
    0.8723   -4.5482    0.0000 H   0  0  0  0  0  0  0  0  0  0  0  0
    2.1494   -6.5711    0.0000 H   0  0  0  0  0  0  0  0  0  0  0  0
    1.8958   -7.2339    0.0000 O   0  0  0  0  0  0  0  0  0  0  0  0
   -0.0415   -5.0857    0.0000 O   0  0  0  0  0  0  0  0  0  0  0  0
    1.5022   -3.6960    0.0000 C   0  0  0  0  0  0  0  0  0  0  0  0
    1.9870   -3.0319    0.0000 C   0  0  0  0  0  0  0  0  0  0  0  0
    0.6846   -3.6083    0.0000 O   0  0  0  0  0  0  0  0  0  0  0  0
    2.8048   -3.1197    0.0000 O   0  0  0  0  0  0  0  0  0  0  0  0
 14 17  1  0  0  0  0
  4  5  1  0  0  0  0
 17 18  1  0  0  0  0
 20 18  1  6  0  0  0
  5  1  1  0  0  0  0
 18 19  2  0  0  0  0
 20 21  1  0  0  0  0
  6 11  1  0  0  0  0
  7  8  1  0  0  0  0
  8  9  1  0  0  0  0
  9 10  1  0  0  0  0
 10 11  2  0  0  0  0
 21 22  1  0  0  0  0
 22 23  1  0  0  0  0
 23 24  1  0  0  0  0
 20 24  1  0  0  0  0
  1  2  1  0  0  0  0
  7 12  2  0  0  0  0
  3  6  1  1  0  0  0
  9 13  2  0  0  0  0
  6  7  1  0  0  0  0
  5 14  1  1  0  0  0
  2 15  1  6  0  0  0
  2  3  1  0  0  0  0
  1 16  1  6  0  0  0
  3  4  1  0  0  0  0
 25 26  2  0  0  0  0
 25 27  1  0  0  0  0
 27 28  1  0  0  0  0
 28 29  1  0  0  0  0
 29 32  1  0  0  0  0
 31 27  1  0  0  0  0
 27 30  1  6  0  0  0
 31 32  1  0  0  0  0
 32 33  1  0  0  0  0
 33 34  1  0  0  0  0
 34 35  1  0  0  0  0
 35 31  1  0  0  0  0
 32 36  1  6  0  0  0
 31 37  1  6  0  0  0
 35 38  2  0  0  0  0
 33 39  2  0  0  0  0
 29 40  1  1  0  0  0
 40 41  1  0  0  0  0
 40 42  1  0  0  0  0
 41 43  1  0  0  0  0
 25 21  1  0  0  0  0
M  END
>  <Mol Weight>
580.5445

>  <Formula>
C24H32N6O11

>  <chembl_id>
CHEMBL1090668

$$$$

  Mrv0541 06201412482D          

 37 40  0  0  0  0            999 V2000
    1.4000   -3.9125    0.0000 C   0  0  0  0  0  0  0  0  0  0  0  0
    1.4000   -4.7375    0.0000 C   0  0  0  0  0  0  0  0  0  0  0  0
    2.8292   -3.9125    0.0000 C   0  0  0  0  0  0  0  0  0  0  0  0
    3.5417   -3.5000    0.0000 S   0  0  0  0  0  0  0  0  0  0  0  0
    0.6875   -3.5000    0.0000 C   0  0  0  0  0  0  0  0  0  0  0  0
    0.6875   -5.1500    0.0000 C   0  0  0  0  0  0  0  0  0  0  0  0
    4.9708   -5.9750    0.0000 S   0  0  0  0  0  0  0  0  0  0  0  0
    2.1125   -3.5000    0.0000 C   0  0  0  0  0  0  0  0  0  0  0  0
    7.1167   -5.5625    0.0000 S   0  0  0  0  0  0  0  0  0  0  0  0
    2.1125   -5.1500    0.0000 C   0  0  0  0  0  0  0  0  0  0  0  0
    5.6875   -5.5625    0.0000 C   0  0  0  0  0  0  0  0  0  0  0  0
    6.4000   -5.9750    0.0000 C   0  0  0  0  0  0  0  0  0  0  0  0
    2.8292   -4.7375    0.0000 C   0  0  0  0  0  0  0  0  0  0  0  0
   -0.0292   -4.7375    0.0000 C   0  0  0  0  0  0  0  0  0  0  0  0
   -0.0292   -3.9125    0.0000 C   0  0  0  0  0  0  0  0  0  0  0  0
    4.2583   -6.3875    0.0000 C   0  0  0  0  0  0  0  0  0  0  0  0
    2.1125   -5.9750    0.0000 N   0  0  0  0  0  0  0  0  0  0  0  0
    3.5417   -5.9750    0.0000 C   0  0  0  0  0  0  0  0  0  0  0  0
    3.9542   -4.2125    0.0000 O   0  0  0  0  0  0  0  0  0  0  0  0
    4.2583   -3.0875    0.0000 O   0  0  0  0  0  0  0  0  0  0  0  0
    6.7042   -4.8500    0.0000 O   0  0  0  0  0  0  0  0  0  0  0  0
    7.8292   -5.1500    0.0000 O   0  0  0  0  0  0  0  0  0  0  0  0
    5.3833   -6.6875    0.0000 O   0  0  0  0  0  0  0  0  0  0  0  0
    4.5583   -5.2625    0.0000 O   0  0  0  0  0  0  0  0  0  0  0  0
    0.6875   -5.9750    0.0000 O   0  0  0  0  0  0  0  0  0  0  0  0
    0.6875   -2.6750    0.0000 O   0  0  0  0  0  0  0  0  0  0  0  0
    2.8292   -6.3875    0.0000 C   0  0  0  0  0  0  0  0  0  0  0  0
    3.1292   -2.7875    0.0000 O   0  0  0  0  0  0  0  0  0  0  0  0
    2.1125   -2.6750    0.0000 N   0  0  0  0  0  0  0  0  0  0  0  0
    7.5292   -6.2750    0.0000 O   0  0  0  0  0  0  0  0  0  0  0  0
   -0.7417   -5.1500    0.0000 C   0  0  0  0  0  0  0  0  0  0  0  0
   -0.7417   -3.5000    0.0000 C   0  0  0  0  0  0  0  0  0  0  0  0
    4.2583   -7.2125    0.0000 C   0  0  0  0  0  0  0  0  0  0  0  0
    3.5417   -7.6250    0.0000 C   0  0  0  0  0  0  0  0  0  0  0  0
    2.8292   -7.2125    0.0000 C   0  0  0  0  0  0  0  0  0  0  0  0
   -1.4583   -3.9125    0.0000 C   0  0  0  0  0  0  0  0  0  0  0  0
   -1.4583   -4.7375    0.0000 C   0  0  0  0  0  0  0  0  0  0  0  0
  2  1  2  0  0  0  0
  3  8  2  0  0  0  0
  4  3  1  0  0  0  0
  5  1  1  0  0  0  0
  6  2  1  0  0  0  0
  7 16  1  0  0  0  0
  8  1  1  0  0  0  0
  9 12  1  0  0  0  0
 10  2  1  0  0  0  0
 11  7  1  0  0  0  0
 12 11  2  0  0  0  0
 13  3  1  0  0  0  0
 14 15  1  0  0  0  0
 15  5  1  0  0  0  0
 16 18  1  0  0  0  0
 17 10  1  0  0  0  0
 18 27  2  0  0  0  0
 19  4  2  0  0  0  0
 20  4  2  0  0  0  0
 21  9  2  0  0  0  0
 22  9  2  0  0  0  0
 23  7  2  0  0  0  0
 24  7  2  0  0  0  0
 25  6  2  0  0  0  0
 26  5  2  0  0  0  0
 27 17  1  0  0  0  0
 28  4  1  0  0  0  0
 29  8  1  0  0  0  0
 30  9  1  0  0  0  0
 31 14  2  0  0  0  0
 32 15  2  0  0  0  0
 33 34  1  0  0  0  0
 34 35  2  0  0  0  0
 35 27  1  0  0  0  0
 36 32  1  0  0  0  0
 37 36  2  0  0  0  0
 14  6  1  0  0  0  0
 13 10  2  0  0  0  0
 37 31  1  0  0  0  0
 33 16  2  0  0  0  0
M  END
>  <Mol Weight>
564.565

>  <Formula>
C22H16N2O10S3

>  <chembl_id>
CHEMBL1089238

$$$$

  Mrv0541 06201412482D          

 43 47  0  0  0  0            999 V2000
    1.4125   -3.6167    0.0000 C   0  0  0  0  0  0  0  0  0  0  0  0
    2.1250   -3.2042    0.0000 C   0  0  0  0  0  0  0  0  0  0  0  0
    0.7000   -3.2042    0.0000 N   0  0  0  0  0  0  0  0  0  0  0  0
    1.1792    0.9583    0.0000 N   0  3  0  0  0  0  0  0  0  0  0  0
    1.4125   -1.9667    0.0000 N   0  0  0  0  0  0  0  0  0  0  0  0
    0.7000   -2.3792    0.0000 C   0  0  0  0  0  0  0  0  0  0  0  0
    2.1250   -2.3792    0.0000 C   0  0  0  0  0  0  0  0  0  0  0  0
   -0.7333   -0.7167    0.0000 C   0  0  0  0  0  0  0  0  0  0  0  0
    4.8875    0.1083    0.0000 C   0  0  0  0  0  0  0  0  0  0  0  0
    1.8542    1.4458    0.0000 C   0  0  0  0  0  0  0  0  0  0  0  0
    4.9875   -3.2042    0.0000 N   0  0  0  0  0  0  0  0  0  0  0  0
    6.4250   -3.1917    0.0000 C   0  0  0  0  0  0  0  0  0  0  0  0
    7.1417   -2.7667    0.0000 C   0  0  0  0  0  0  0  0  0  0  0  0
    4.1250    0.4333    0.0000 N   0  0  0  0  0  0  0  0  0  0  0  0
    2.8375   -3.6167    0.0000 C   0  0  0  0  0  0  0  0  0  0  0  0
    0.4250    1.2958    0.0000 O   0  5  0  0  0  0  0  0  0  0  0  0
   -1.4458   -1.1292    0.0000 N   0  0  0  0  0  0  0  0  0  0  0  0
   -0.7333    0.1083    0.0000 N   0  0  0  0  0  0  0  0  0  0  0  0
    1.2625    0.1333    0.0000 O   0  0  0  0  0  0  0  0  0  0  0  0
    4.9792   -0.7167    0.0000 C   0  0  0  0  0  0  0  0  0  0  0  0
    4.9792   -2.3667    0.0000 C   0  0  0  0  0  0  0  0  0  0  0  0
    1.4125   -4.4417    0.0000 O   0  0  0  0  0  0  0  0  0  0  0  0
   -0.0208   -1.1292    0.0000 S   0  0  0  0  0  0  0  0  0  0  0  0
    4.2750   -3.6167    0.0000 C   0  0  0  0  0  0  0  0  0  0  0  0
    3.5542   -3.2042    0.0000 C   0  0  0  0  0  0  0  0  0  0  0  0
    2.6125    1.1083    0.0000 C   0  0  0  0  0  0  0  0  0  0  0  0
    5.5500    0.5958    0.0000 O   0  0  0  0  0  0  0  0  0  0  0  0
    2.8375   -1.9667    0.0000 C   0  0  0  0  0  0  0  0  0  0  0  0
   -0.0250   -1.9542    0.0000 C   0  0  0  0  0  0  0  0  0  0  0  0
    5.6917   -1.1292    0.0000 C   0  0  0  0  0  0  0  0  0  0  0  0
    4.3792   -1.2292    0.0000 C   0  0  0  0  0  0  0  0  0  0  0  0
    4.4042   -2.0542    0.0000 C   0  0  0  0  0  0  0  0  0  0  0  0
    5.6917   -1.9542    0.0000 C   0  0  0  0  0  0  0  0  0  0  0  0
    4.0292    1.2583    0.0000 C   0  0  0  0  0  0  0  0  0  0  0  0
    5.7125   -3.6042    0.0000 C   0  0  0  0  0  0  0  0  0  0  0  0
    3.2750    1.5833    0.0000 C   0  0  0  0  0  0  0  0  0  0  0  0
    3.5542   -2.3792    0.0000 C   0  0  0  0  0  0  0  0  0  0  0  0
   -2.1625    0.1083    0.0000 C   0  0  0  0  0  0  0  0  0  0  0  0
   -1.4458    0.5208    0.0000 C   0  0  0  0  0  0  0  0  0  0  0  0
   -2.1625   -0.7167    0.0000 C   0  0  0  0  0  0  0  0  0  0  0  0
    1.7625    2.2583    0.0000 C   0  0  0  0  0  0  0  0  0  0  0  0
    2.4375    2.7458    0.0000 C   0  0  0  0  0  0  0  0  0  0  0  0
    3.1875    2.4083    0.0000 C   0  0  0  0  0  0  0  0  0  0  0  0
  2  1  1  0  0  0  0
  3  1  2  0  0  0  0
  4 10  1  0  0  0  0
  5  6  2  0  0  0  0
  6  3  1  0  0  0  0
  7  2  2  0  0  0  0
  8 23  1  0  0  0  0
  9 20  1  0  0  0  0
 10 26  2  0  0  0  0
 11 24  1  0  0  0  0
 12 35  1  0  0  0  0
 13 12  3  0  0  0  0
 14  9  1  0  0  0  0
 15  2  1  0  0  0  0
 16  4  1  0  0  0  0
 17  8  1  0  0  0  0
 18  8  2  0  0  0  0
 19  4  2  0  0  0  0
 20 30  1  0  0  0  0
 21 11  1  0  0  0  0
 22  1  1  0  0  0  0
 23 29  1  0  0  0  0
 24 25  1  0  0  0  0
 25 15  2  0  0  0  0
 26 36  1  0  0  0  0
 27  9  2  0  0  0  0
 28  7  1  0  0  0  0
 29  6  1  0  0  0  0
 30 33  2  0  0  0  0
 31 32  1  0  0  0  0
 32 21  2  0  0  0  0
 33 21  1  0  0  0  0
 34 14  1  0  0  0  0
 35 11  1  0  0  0  0
 36 34  1  0  0  0  0
 37 25  1  0  0  0  0
 38 39  2  0  0  0  0
 39 18  1  0  0  0  0
 40 17  2  0  0  0  0
 41 42  2  0  0  0  0
 42 43  1  0  0  0  0
 43 36  2  0  0  0  0
  5  7  1  0  0  0  0
 37 28  2  0  0  0  0
 40 38  1  0  0  0  0
 31 20  2  0  0  0  0
 10 41  1  0  0  0  0
M  CHG  2   4   1  16  -1
M  END
>  <Mol Weight>
591.64

>  <Formula>
C31H25N7O4S

>  <chembl_id>
CHEMBL159633

$$$$

  Mrv0541 06201412482D          

 42 46  0  0  0  0            999 V2000
    3.0958  -13.8631    0.0000 C   0  0  0  0  0  0  0  0  0  0  0  0
    3.8116  -14.2732    0.0000 N   0  0  0  0  0  0  0  0  0  0  0  0
    4.5247  -13.8583    0.0000 C   0  0  0  0  0  0  0  0  0  0  0  0
    5.2405  -14.2685    0.0000 C   0  0  0  0  0  0  0  0  0  0  0  0
    5.9536  -13.8536    0.0000 O   0  0  0  0  0  0  0  0  0  0  0  0
    5.2433  -15.0935    0.0000 O   0  0  0  0  0  0  0  0  0  0  0  0
    3.8144  -15.0982    0.0000 C   0  0  0  0  0  0  0  0  0  0  0  0
    3.1012  -15.5131    0.0000 O   0  0  0  0  0  0  0  0  0  0  0  0
    4.5301  -15.5083    0.0000 O   0  0  0  0  0  0  0  0  0  0  0  0
    4.5329  -16.3333    0.0000 C   0  0  0  0  0  0  0  0  0  0  0  0
    3.8197  -16.7442    0.0000 C   0  0  0  0  0  0  0  0  0  0  0  0
    3.8221  -17.5685    0.0000 C   0  0  0  0  0  0  0  0  0  0  0  0
    4.5384  -17.9795    0.0000 C   0  0  0  0  0  0  0  0  0  0  0  0
    5.2539  -17.5602    0.0000 C   0  0  0  0  0  0  0  0  0  0  0  0
    5.2480  -16.7374    0.0000 C   0  0  0  0  0  0  0  0  0  0  0  0
    4.5422  -18.8045    0.0000 C   0  0  0  0  0  0  0  0  0  0  0  0
    1.6893  -10.5554    0.0000 C   0  0  0  0  0  0  0  0  0  0  0  0
    1.6787  -11.3804    0.0000 O   0  0  0  0  0  0  0  0  0  0  0  0
    2.3905  -11.7974    0.0000 C   0  0  0  0  0  0  0  0  0  0  0  0
    2.3829  -12.6200    0.0000 C   0  0  0  0  0  0  0  0  0  0  0  0
    3.0940  -13.0370    0.0000 C   0  0  0  0  0  0  0  0  0  0  0  0
    3.8120  -12.6290    0.0000 C   0  0  0  0  0  0  0  0  0  0  0  0
    3.8147  -11.7998    0.0000 C   0  0  0  0  0  0  0  0  0  0  0  0
    3.1031  -11.3864    0.0000 C   0  0  0  0  0  0  0  0  0  0  0  0
   -2.3944   -9.1525    0.0000 C   0  0  0  0  0  0  0  0  0  0  0  0
   -2.7816   -9.8839    0.0000 C   0  0  0  0  0  0  0  0  0  0  0  0
   -2.3435  -10.5818    0.0000 C   0  0  0  0  0  0  0  0  0  0  0  0
   -1.5145  -10.5516    0.0000 C   0  0  0  0  0  0  0  0  0  0  0  0
   -1.1296   -9.8151    0.0000 C   0  0  0  0  0  0  0  0  0  0  0  0
   -1.5741   -9.1184    0.0000 C   0  0  0  0  0  0  0  0  0  0  0  0
   -0.3054   -9.7794    0.0000 C   0  0  0  0  0  0  0  0  0  0  0  0
    0.2058  -10.4247    0.0000 N   0  0  0  0  0  0  0  0  0  0  0  0
    0.9788  -10.1361    0.0000 C   0  0  0  0  0  0  0  0  0  0  0  0
    0.9430   -9.3118    0.0000 C   0  0  0  0  0  0  0  0  0  0  0  0
    0.1481   -9.0912    0.0000 O   0  0  0  0  0  0  0  0  0  0  0  0
    1.5888   -8.7985    0.0000 C   0  0  0  0  0  0  0  0  0  0  0  0
   -3.6060   -9.9144    0.0000 C   0  0  0  0  0  0  0  0  0  0  0  0
   -4.0417   -9.2132    0.0000 C   0  0  0  0  0  0  0  0  0  0  0  0
   -4.8654   -9.2432    0.0000 C   0  0  0  0  0  0  0  0  0  0  0  0
   -5.2521   -9.9729    0.0000 C   0  0  0  0  0  0  0  0  0  0  0  0
   -4.8091  -10.6738    0.0000 C   0  0  0  0  0  0  0  0  0  0  0  0
   -3.9868  -10.6404    0.0000 C   0  0  0  0  0  0  0  0  0  0  0  0
 10 11  2  0  0  0  0
 21 22  2  0  0  0  0
  4  6  2  0  0  0  0
 22 23  1  0  0  0  0
 11 12  1  0  0  0  0
 23 24  2  0  0  0  0
 24 19  1  0  0  0  0
 21  1  1  0  0  0  0
  1  2  1  0  0  0  0
 12 13  2  0  0  0  0
 25 26  2  0  0  0  0
  2  7  1  0  0  0  0
 26 27  1  0  0  0  0
 13 14  1  0  0  0  0
 27 28  2  0  0  0  0
  3  4  1  0  0  0  0
 28 29  1  0  0  0  0
 14 15  2  0  0  0  0
 29 30  2  0  0  0  0
 30 25  1  0  0  0  0
 15 10  1  0  0  0  0
 29 31  1  0  0  0  0
 31 32  2  0  0  0  0
  7  8  2  0  0  0  0
 13 16  1  0  0  0  0
  7  9  1  0  0  0  0
 32 33  1  0  0  0  0
 33 34  2  0  0  0  0
 34 35  1  0  0  0  0
 35 31  1  0  0  0  0
 17 18  1  0  0  0  0
 34 36  1  0  0  0  0
 33 17  1  0  0  0  0
  4  5  1  0  0  0  0
 26 37  1  0  0  0  0
 18 19  1  0  0  0  0
 37 38  2  0  0  0  0
  9 10  1  0  0  0  0
 38 39  1  0  0  0  0
 19 20  2  0  0  0  0
 39 40  2  0  0  0  0
  2  3  1  0  0  0  0
 40 41  1  0  0  0  0
 20 21  1  0  0  0  0
 41 42  2  0  0  0  0
 42 37  1  0  0  0  0
M  END
>  <Mol Weight>
562.6118

>  <Formula>
C34H30N2O6

>  <chembl_id>
CHEMBL1089969

$$$$

  Mrv0541 06201412482D          

 42 45  0  0  0  0            999 V2000
   -4.3596   -0.0555    0.0000 C   0  0  0  0  0  0  0  0  0  0  0  0
   -3.5358   -0.0209    0.0000 C   0  0  0  0  0  0  0  0  0  0  0  0
   -4.8522   -0.7193    0.0000 C   0  0  1  0  0  0  0  0  0  0  0  0
   -4.6320   -1.5175    0.0000 C   0  0  1  0  0  0  0  0  0  0  0  0
   -3.8758   -1.8436    0.0000 C   0  0  0  0  0  0  0  0  0  0  0  0
   -3.0022   -0.6508    0.0000 C   0  0  2  0  0  0  0  0  0  0  0  0
   -3.1430   -1.4621    0.0000 N   0  0  0  0  0  0  0  0  0  0  0  0
   -2.4242   -1.8484    0.0000 C   0  0  1  0  0  0  0  0  0  0  0  0
   -1.8271   -1.2784    0.0000 C   0  0  0  0  0  0  0  0  0  0  0  0
   -2.1895   -0.5386    0.0000 C   0  0  0  0  0  0  0  0  0  0  0  0
   -3.8432   -2.6667    0.0000 O   0  0  0  0  0  0  0  0  0  0  0  0
   -5.2606   -2.0611    0.0000 N   0  0  0  0  0  0  0  0  0  0  0  0
   -5.2391   -2.8849    0.0000 C   0  0  0  0  0  0  0  0  0  0  0  0
   -5.9435   -3.3124    0.0000 C   0  0  1  0  0  0  0  0  0  0  0  0
   -4.5124   -3.2811    0.0000 O   0  0  0  0  0  0  0  0  0  0  0  0
   -6.6701   -2.9162    0.0000 N   0  0  0  0  0  0  0  0  0  0  0  0
   -5.9268   -4.1418    0.0000 C   0  0  0  0  0  0  0  0  0  0  0  0
   -6.6313   -4.5692    0.0000 C   0  0  0  0  0  0  0  0  0  0  0  0
   -3.0061    0.1762    0.0000 H   0  0  0  0  0  0  0  0  0  0  0  0
   -2.4258   -2.6727    0.0000 C   0  0  0  0  0  0  0  0  0  0  0  0
   -3.1481   -3.0813    0.0000 O   0  0  0  0  0  0  0  0  0  0  0  0
   -1.7165   -3.0937    0.0000 N   0  0  0  0  0  0  0  0  0  0  0  0
   -1.7179   -3.9175    0.0000 C   0  0  0  0  0  0  0  0  0  0  0  0
   -1.0085   -4.3330    0.0000 C   0  0  0  0  0  0  0  0  0  0  0  0
   -1.0186   -5.1637    0.0000 C   0  0  0  0  0  0  0  0  0  0  0  0
    0.4106   -5.1750    0.0000 C   0  0  0  0  0  0  0  0  0  0  0  0
    0.4149   -4.3497    0.0000 C   0  0  0  0  0  0  0  0  0  0  0  0
   -0.3092   -5.5845    0.0000 C   0  0  0  0  0  0  0  0  0  0  0  0
   -0.2951   -3.9283    0.0000 C   0  0  0  0  0  0  0  0  0  0  0  0
   -2.4401   -4.3263    0.0000 C   0  0  0  0  0  0  0  0  0  0  0  0
   -3.1500   -3.9061    0.0000 C   0  0  0  0  0  0  0  0  0  0  0  0
   -3.8766   -5.1343    0.0000 C   0  0  0  0  0  0  0  0  0  0  0  0
   -3.1619   -5.5526    0.0000 C   0  0  0  0  0  0  0  0  0  0  0  0
   -3.8694   -4.3099    0.0000 C   0  0  0  0  0  0  0  0  0  0  0  0
   -2.4397   -5.1466    0.0000 C   0  0  0  0  0  0  0  0  0  0  0  0
   -5.6625   -0.5687    0.0000 C   0  0  0  0  0  0  0  0  0  0  0  0
   -5.9391    0.2136    0.0000 N   0  0  0  0  0  0  0  0  0  0  0  0
   -5.4000    0.8442    0.0000 C   0  0  0  0  0  0  0  0  0  0  0  0
   -5.6766    1.6263    0.0000 N   0  0  0  0  0  0  0  0  0  0  0  0
   -4.5843    0.6925    0.0000 O   0  0  0  0  0  0  0  0  0  0  0  0
   -5.1375    2.2570    0.0000 C   0  0  0  0  0  0  0  0  0  0  0  0
   -5.4141    3.0391    0.0000 C   0  0  0  0  0  0  0  0  0  0  0  0
  9 10  1  0  0  0  0
 20 21  2  0  0  0  0
 10  6  1  0  0  0  0
 20 22  1  0  0  0  0
  7  5  1  0  0  0  0
 22 23  1  0  0  0  0
  5 11  2  0  0  0  0
 23 24  1  0  0  0  0
 24 25  2  0  0  0  0
  4  5  1  0  0  0  0
 26 27  1  0  0  0  0
  4 12  1  1  0  0  0
  6  7  1  0  0  0  0
 12 13  1  0  0  0  0
 24 29  1  0  0  0  0
 25 28  1  0  0  0  0
 28 26  2  0  0  0  0
 27 29  2  0  0  0  0
 13 14  1  0  0  0  0
 23 30  1  0  0  0  0
 30 31  2  0  0  0  0
  1  3  1  0  0  0  0
 32 33  1  0  0  0  0
 13 15  2  0  0  0  0
  1  2  1  0  0  0  0
 14 16  1  0  0  0  0
  3  4  1  0  0  0  0
 30 35  1  0  0  0  0
 31 34  1  0  0  0  0
 34 32  2  0  0  0  0
 33 35  2  0  0  0  0
 14 17  1  6  0  0  0
  3 36  1  1  0  0  0
  2  6  1  0  0  0  0
 36 37  1  0  0  0  0
 17 18  1  0  0  0  0
 37 38  1  0  0  0  0
  7  8  1  0  0  0  0
 38 39  1  0  0  0  0
  6 19  1  6  0  0  0
 38 40  2  0  0  0  0
  8  9  1  0  0  0  0
 39 41  1  0  0  0  0
  8 20  1  1  0  0  0
 41 42  1  0  0  0  0
M  END
>  <Mol Weight>
562.703

>  <Formula>
C31H42N6O4

>  <chembl_id>
CHEMBL584397

$$$$

  Mrv0541 06201412482D          

 42 43  0  0  0  0            999 V2000
   18.3275  -10.3332    0.0000 C   0  0  1  0  0  0  0  0  0  0  0  0
   18.0709  -11.1183    0.0000 C   0  0  0  0  0  0  0  0  0  0  0  0
   17.2318  -11.1475    0.0000 N   0  0  0  0  0  0  0  0  0  0  0  0
   16.9661  -11.9279    0.0000 C   0  0  1  0  0  0  0  0  0  0  0  0
   16.1348  -11.9303    0.0000 C   0  0  0  0  0  0  0  0  0  0  0  0
   15.8685  -11.1474    0.0000 N   0  0  0  0  0  0  0  0  0  0  0  0
   15.0540  -11.1179    0.0000 C   0  0  2  0  0  0  0  0  0  0  0  0
   14.8104  -10.3389    0.0000 C   0  0  0  0  0  0  0  0  0  0  0  0
   15.4621   -9.8545    0.0000 N   0  0  0  0  0  0  0  0  0  0  0  0
   15.2186   -9.0797    0.0000 C   0  0  2  0  0  0  0  0  0  0  0  0
   15.8664   -8.5872    0.0000 C   0  0  0  0  0  0  0  0  0  0  0  0
   16.5474   -9.0421    0.0000 N   0  0  0  0  0  0  0  0  0  0  0  0
   17.2044   -8.5585    0.0000 C   0  0  1  0  0  0  0  0  0  0  0  0
   17.8913   -9.0533    0.0000 C   0  0  0  0  0  0  0  0  0  0  0  0
   17.6587   -9.8393    0.0000 N   0  0  0  0  0  0  0  0  0  0  0  0
   18.6722   -8.7832    0.0000 O   0  0  0  0  0  0  0  0  0  0  0  0
   17.2014   -7.7334    0.0000 C   0  0  0  0  0  0  0  0  0  0  0  0
   15.8410   -7.7625    0.0000 O   0  0  0  0  0  0  0  0  0  0  0  0
   14.4321   -8.8268    0.0000 C   0  0  0  0  0  0  0  0  0  0  0  0
   14.2563   -8.0207    0.0000 C   0  0  0  0  0  0  0  0  0  0  0  0
   13.4697   -7.7719    0.0000 C   0  0  0  0  0  0  0  0  0  0  0  0
   14.8671   -7.4674    0.0000 C   0  0  0  0  0  0  0  0  0  0  0  0
   14.0296  -10.0850    0.0000 O   0  0  0  0  0  0  0  0  0  0  0  0
   14.5505  -11.7738    0.0000 C   0  0  0  0  0  0  0  0  0  0  0  0
   13.7323  -11.6673    0.0000 C   0  0  0  0  0  0  0  0  0  0  0  0
   13.2330  -12.3232    0.0000 C   0  0  0  0  0  0  0  0  0  0  0  0
   13.4175  -10.9049    0.0000 C   0  0  0  0  0  0  0  0  0  0  0  0
   15.6583  -12.6032    0.0000 O   0  0  0  0  0  0  0  0  0  0  0  0
   17.4486  -12.5994    0.0000 C   0  0  0  0  0  0  0  0  0  0  0  0
   17.1058  -13.3515    0.0000 C   0  0  0  0  0  0  0  0  0  0  0  0
   16.2876  -13.4332    0.0000 C   0  0  0  0  0  0  0  0  0  0  0  0
   16.4237  -14.8553    0.0000 C   0  0  0  0  0  0  0  0  0  0  0  0
   17.2461  -14.7766    0.0000 C   0  0  0  0  0  0  0  0  0  0  0  0
   15.9486  -14.1811    0.0000 C   0  0  0  0  0  0  0  0  0  0  0  0
   17.5933  -14.0236    0.0000 C   0  0  0  0  0  0  0  0  0  0  0  0
   18.5696  -11.7778    0.0000 O   0  0  0  0  0  0  0  0  0  0  0  0
   19.1132  -10.0815    0.0000 C   0  0  0  0  0  0  0  0  0  0  0  0
   19.7218  -10.6324    0.0000 C   0  0  0  0  0  0  0  0  0  0  0  0
   19.5490  -11.4350    0.0000 C   0  0  0  0  0  0  0  0  0  0  0  0
   20.5033  -10.3807    0.0000 C   0  0  0  0  0  0  0  0  0  0  0  0
   17.9110   -7.3203    0.0000 C   0  0  0  0  0  0  0  0  0  0  0  0
   16.4890   -7.3253    0.0000 C   0  0  0  0  0  0  0  0  0  0  0  0
 20 21  1  0  0  0  0
  3  4  1  0  0  0  0
 20 22  1  0  0  0  0
  8  9  1  0  0  0  0
  8 23  2  0  0  0  0
  9 10  1  0  0  0  0
  7 24  1  1  0  0  0
 10 11  1  0  0  0  0
 24 25  1  0  0  0  0
  7  8  1  0  0  0  0
 25 26  1  0  0  0  0
 12 13  1  0  0  0  0
 25 27  1  0  0  0  0
 13 14  1  0  0  0  0
  5 28  2  0  0  0  0
 14 15  1  0  0  0  0
  4 29  1  6  0  0  0
 11 12  1  0  0  0  0
 29 30  1  0  0  0  0
 30 31  2  0  0  0  0
  1 15  1  0  0  0  0
 32 33  1  0  0  0  0
 14 16  2  0  0  0  0
  1  2  1  0  0  0  0
 13 17  1  6  0  0  0
 30 35  1  0  0  0  0
 31 34  1  0  0  0  0
 34 32  2  0  0  0  0
 33 35  2  0  0  0  0
  2  3  1  0  0  0  0
  2 36  2  0  0  0  0
 11 18  2  0  0  0  0
  1 37  1  1  0  0  0
  4  5  1  0  0  0  0
 37 38  1  0  0  0  0
 10 19  1  1  0  0  0
 38 39  1  0  0  0  0
  5  6  1  0  0  0  0
 38 40  1  0  0  0  0
 19 20  1  0  0  0  0
 17 41  1  0  0  0  0
  6  7  1  0  0  0  0
 17 42  1  0  0  0  0
M  END
>  <Mol Weight>
585.7778

>  <Formula>
C32H51N5O5

>  <chembl_id>
CHEMBL584399

$$$$

  Mrv0541 06201412482D          

 42 43  0  0  0  0            999 V2000
    0.0369   -1.2688    0.0000 C   0  0  1  0  0  0  0  0  0  0  0  0
   -0.2198   -2.0540    0.0000 C   0  0  0  0  0  0  0  0  0  0  0  0
   -1.0590   -2.0832    0.0000 N   0  0  0  0  0  0  0  0  0  0  0  0
   -1.3246   -2.8638    0.0000 C   0  0  2  0  0  0  0  0  0  0  0  0
   -2.1560   -2.8662    0.0000 C   0  0  0  0  0  0  0  0  0  0  0  0
   -2.4224   -2.0832    0.0000 N   0  0  0  0  0  0  0  0  0  0  0  0
   -3.2369   -2.0536    0.0000 C   0  0  2  0  0  0  0  0  0  0  0  0
   -3.4806   -1.2745    0.0000 C   0  0  0  0  0  0  0  0  0  0  0  0
   -2.8287   -0.7901    0.0000 N   0  0  0  0  0  0  0  0  0  0  0  0
   -3.0722   -0.0152    0.0000 C   0  0  1  0  0  0  0  0  0  0  0  0
   -2.4245    0.4772    0.0000 C   0  0  0  0  0  0  0  0  0  0  0  0
   -1.7433    0.0224    0.0000 N   0  0  0  0  0  0  0  0  0  0  0  0
   -1.0862    0.5060    0.0000 C   0  0  1  0  0  0  0  0  0  0  0  0
   -0.3994    0.0111    0.0000 C   0  0  0  0  0  0  0  0  0  0  0  0
   -0.6320   -0.7748    0.0000 N   0  0  0  0  0  0  0  0  0  0  0  0
    0.3816    0.2814    0.0000 O   0  0  0  0  0  0  0  0  0  0  0  0
   -1.0892    1.3313    0.0000 C   0  0  0  0  0  0  0  0  0  0  0  0
   -2.4498    1.3021    0.0000 O   0  0  0  0  0  0  0  0  0  0  0  0
   -3.8589    0.2377    0.0000 C   0  0  0  0  0  0  0  0  0  0  0  0
   -4.0346    1.0439    0.0000 C   0  0  0  0  0  0  0  0  0  0  0  0
   -4.8213    1.2927    0.0000 C   0  0  0  0  0  0  0  0  0  0  0  0
   -3.4238    1.5972    0.0000 C   0  0  0  0  0  0  0  0  0  0  0  0
   -4.2614   -1.0206    0.0000 O   0  0  0  0  0  0  0  0  0  0  0  0
   -3.7403   -2.7096    0.0000 C   0  0  0  0  0  0  0  0  0  0  0  0
   -4.5586   -2.6030    0.0000 C   0  0  0  0  0  0  0  0  0  0  0  0
   -5.0581   -3.2590    0.0000 C   0  0  0  0  0  0  0  0  0  0  0  0
   -4.8735   -1.8406    0.0000 C   0  0  0  0  0  0  0  0  0  0  0  0
   -2.6325   -3.5390    0.0000 O   0  0  0  0  0  0  0  0  0  0  0  0
   -0.8421   -3.5352    0.0000 C   0  0  0  0  0  0  0  0  0  0  0  0
   -1.1850   -4.2873    0.0000 C   0  0  0  0  0  0  0  0  0  0  0  0
   -2.0032   -4.3691    0.0000 C   0  0  0  0  0  0  0  0  0  0  0  0
   -1.8670   -5.7914    0.0000 C   0  0  0  0  0  0  0  0  0  0  0  0
   -1.0446   -5.7126    0.0000 C   0  0  0  0  0  0  0  0  0  0  0  0
   -2.3422   -5.1172    0.0000 C   0  0  0  0  0  0  0  0  0  0  0  0
   -0.6974   -4.9596    0.0000 C   0  0  0  0  0  0  0  0  0  0  0  0
    0.2791   -2.7135    0.0000 O   0  0  0  0  0  0  0  0  0  0  0  0
    0.8226   -1.0171    0.0000 C   0  0  0  0  0  0  0  0  0  0  0  0
    1.4314   -1.5681    0.0000 C   0  0  0  0  0  0  0  0  0  0  0  0
    1.2585   -2.3708    0.0000 C   0  0  0  0  0  0  0  0  0  0  0  0
    2.2130   -1.3164    0.0000 C   0  0  0  0  0  0  0  0  0  0  0  0
   -0.3796    1.7443    0.0000 C   0  0  0  0  0  0  0  0  0  0  0  0
   -1.8018    1.7392    0.0000 C   0  0  0  0  0  0  0  0  0  0  0  0
 20 21  1  0  0  0  0
  3  4  1  0  0  0  0
 20 22  1  0  0  0  0
  8  9  1  0  0  0  0
  8 23  2  0  0  0  0
  9 10  1  0  0  0  0
  7 24  1  1  0  0  0
 10 11  1  0  0  0  0
 24 25  1  0  0  0  0
  7  8  1  0  0  0  0
 25 26  1  0  0  0  0
 12 13  1  0  0  0  0
 25 27  1  0  0  0  0
 13 14  1  0  0  0  0
  5 28  2  0  0  0  0
 14 15  1  0  0  0  0
  4 29  1  1  0  0  0
 11 12  1  0  0  0  0
 29 30  1  0  0  0  0
 30 31  2  0  0  0  0
  1 15  1  0  0  0  0
 32 33  1  0  0  0  0
 14 16  2  0  0  0  0
  1  2  1  0  0  0  0
 13 17  1  6  0  0  0
 30 35  1  0  0  0  0
 31 34  1  0  0  0  0
 34 32  2  0  0  0  0
 33 35  2  0  0  0  0
  2  3  1  0  0  0  0
  2 36  2  0  0  0  0
 11 18  2  0  0  0  0
  1 37  1  1  0  0  0
  4  5  1  0  0  0  0
 37 38  1  0  0  0  0
 10 19  1  6  0  0  0
 38 39  1  0  0  0  0
  5  6  1  0  0  0  0
 38 40  1  0  0  0  0
 19 20  1  0  0  0  0
 17 41  1  0  0  0  0
  6  7  1  0  0  0  0
 17 42  1  0  0  0  0
M  END
>  <Mol Weight>
585.7778

>  <Formula>
C32H51N5O5

>  <chembl_id>
CHEMBL584401

$$$$

  Mrv0541 06201412482D          

 41 46  0  0  0  0            999 V2000
    9.7116   -0.1751    0.0000 C   0  0  0  0  0  0  0  0  0  0  0  0
   10.4257    0.2442    0.0000 C   0  0  0  0  0  0  0  0  0  0  0  0
   11.1399   -0.1751    0.0000 C   0  0  2  0  0  0  0  0  0  0  0  0
   11.1347   -1.0011    0.0000 C   0  0  0  0  0  0  0  0  0  0  0  0
   11.8440   -1.4152    0.0000 C   0  0  0  0  0  0  0  0  0  0  0  0
   12.5611   -1.0060    0.0000 C   0  0  0  0  0  0  0  0  0  0  0  0
   12.5665   -0.1801    0.0000 O   0  0  0  0  0  0  0  0  0  0  0  0
   11.8503    0.2368    0.0000 C   0  0  1  0  0  0  0  0  0  0  0  0
   11.8556    1.0612    0.0000 C   0  0  0  0  0  0  0  0  0  0  0  0
   12.5255    1.5430    0.0000 C   0  0  0  0  0  0  0  0  0  0  0  0
   12.2699    2.3301    0.0000 O   0  0  0  0  0  0  0  0  0  0  0  0
   11.4438    2.3337    0.0000 C   0  0  0  0  0  0  0  0  0  0  0  0
   11.1899    1.5487    0.0000 C   0  0  0  0  0  0  0  0  0  0  0  0
   10.4257   -1.4079    0.0000 C   0  0  0  0  0  0  0  0  0  0  0  0
    9.7116   -1.0011    0.0000 C   0  0  1  0  0  0  0  0  0  0  0  0
    9.0069   -1.4107    0.0000 C   0  0  1  0  0  0  0  0  0  0  0  0
    9.0071   -2.2336    0.0000 C   0  0  1  0  0  0  0  0  0  0  0  0
    9.7171   -2.6403    0.0000 C   0  0  1  0  0  0  0  0  0  0  0  0
   10.4311   -2.2282    0.0000 C   0  0  0  0  0  0  0  0  0  0  0  0
    8.2859   -1.8187    0.0000 C   0  0  2  0  0  0  0  0  0  0  0  0
    9.0009   -3.0493    0.0000 C   0  0  2  0  0  0  0  0  0  0  0  0
    8.2797   -2.6447    0.0000 C   0  0  2  0  0  0  0  0  0  0  0  0
    8.9978   -3.8754    0.0000 O   0  0  0  0  0  0  0  0  0  0  0  0
    8.2846   -4.2893    0.0000 C   0  0  0  0  0  0  0  0  0  0  0  0
    8.2857   -5.1154    0.0000 O   0  0  0  0  0  0  0  0  0  0  0  0
    7.5703   -3.8773    0.0000 C   0  0  0  0  0  0  0  0  0  0  0  0
   11.1474   -2.6367    0.0000 O   0  0  0  0  0  0  0  0  0  0  0  0
   13.2755   -1.4250    0.0000 O   0  0  0  0  0  0  0  0  0  0  0  0
    7.5725   -1.3981    0.0000 C   0  0  0  0  0  0  0  0  0  0  0  0
    6.8545   -1.8075    0.0000 C   0  0  0  0  0  0  0  0  0  0  0  0
    6.1410   -1.3910    0.0000 O   0  0  0  0  0  0  0  0  0  0  0  0
    6.8497   -2.6335    0.0000 O   0  0  0  0  0  0  0  0  0  0  0  0
    5.4230   -1.7963    0.0000 C   0  0  0  0  0  0  0  0  0  0  0  0
    8.5878   -0.6908    0.0000 C   0  0  0  0  0  0  0  0  0  0  0  0
   11.1288    0.6510    0.0000 C   0  0  0  0  0  0  0  0  0  0  0  0
    7.5676   -3.0604    0.0000 C   0  0  0  0  0  0  0  0  0  0  0  0
    8.5480   -1.8774    0.0000 C   0  0  0  0  0  0  0  0  0  0  0  0
    9.7208   -1.8205    0.0000 O   0  0  0  0  0  0  0  0  0  0  0  0
    9.1256   -0.4180    0.0000 H   0  0  0  0  0  0  0  0  0  0  0  0
   10.9514   -3.3603    0.0000 C   0  0  0  0  0  0  0  0  0  0  0  0
   10.1264   -3.3566    0.0000 O   0  0  0  0  0  0  0  0  0  0  0  0
 14  4  2  0  0  0  0
  3  2  1  0  0  0  0
  3  4  1  0  0  0  0
  3  8  1  0  0  0  0
  4  5  1  0  0  0  0
  5  6  1  0  0  0  0
  6  7  1  0  0  0  0
  7  8  1  0  0  0  0
  9 10  2  0  0  0  0
 10 11  1  0  0  0  0
 11 12  1  0  0  0  0
 12 13  2  0  0  0  0
 13  9  1  0  0  0  0
  8  9  1  6  0  0  0
 14 15  1  0  0  0  0
 14 19  1  0  0  0  0
 15 16  1  0  0  0  0
 16 17  1  0  0  0  0
 17 18  1  0  0  0  0
 18 19  1  0  0  0  0
 16 20  1  0  0  0  0
 18 21  1  0  0  0  0
 20 22  1  0  0  0  0
 22 21  1  0  0  0  0
 21 23  1  1  0  0  0
 23 24  1  0  0  0  0
 24 25  2  0  0  0  0
 24 26  1  0  0  0  0
 19 27  2  0  0  0  0
  6 28  2  0  0  0  0
 20 29  1  6  0  0  0
 29 30  1  0  0  0  0
 30 31  1  0  0  0  0
 30 32  2  0  0  0  0
 31 33  1  0  0  0  0
 16 34  1  6  0  0  0
  3 35  1  6  0  0  0
 22 36  1  1  0  0  0
 22 37  1  0  0  0  0
 37 17  1  0  0  0  0
 17 38  1  6  0  0  0
 15 39  1  6  0  0  0
  1 15  1  0  0  0  0
  1  2  1  0  0  0  0
 18 41  1  6  0  0  0
 41 40  1  0  0  0  0
M  END
>  <Mol Weight>
556.6008

>  <Formula>
C30H36O10

>  <chembl_id>
CHEMBL1076925

$$$$

  Mrv0541 06201412482D          

 44 47  0  0  1  0            999 V2000
    1.3161   -3.1609    0.0000 N   0  0  0  0  0  0  0  0  0  0  0  0
    0.5539   -2.8361    0.0000 C   0  0  0  0  0  0  0  0  0  0  0  0
    1.2244   -3.9980    0.0000 C   0  0  0  0  0  0  0  0  0  0  0  0
    0.0000   -3.4525    0.0000 C   0  0  0  0  0  0  0  0  0  0  0  0
    0.4165   -4.1647    0.0000 C   0  0  0  0  0  0  0  0  0  0  0  0
    5.6222   -3.1609    0.0000 C   0  0  0  0  0  0  0  0  0  0  0  0
   -0.8246   -3.4525    0.0000 C   0  0  0  0  0  0  0  0  0  0  0  0
    0.0167   -4.8768    0.0000 C   0  0  0  0  0  0  0  0  0  0  0  0
    6.3469   -2.7486    0.0000 N   0  0  0  0  0  0  0  0  0  0  0  0
    2.0157   -2.7486    0.0000 C   0  0  0  0  0  0  0  0  0  0  0  0
    4.1854   -3.1609    0.0000 N   0  0  0  0  0  0  0  0  0  0  0  0
    4.9101   -2.7486    0.0000 C   0  0  1  0  0  0  0  0  0  0  0  0
    7.0507   -2.3364    0.0000 C   0  0  2  0  0  0  0  0  0  0  0  0
   -1.2327   -4.1647    0.0000 C   0  0  0  0  0  0  0  0  0  0  0  0
    7.6879   -2.8778    0.0000 C   0  0  0  0  0  0  0  0  0  0  0  0
    3.4650   -1.9241    0.0000 C   0  0  0  0  0  0  0  0  0  0  0  0
    3.4650   -2.7486    0.0000 C   0  0  1  0  0  0  0  0  0  0  0  0
   -0.8204   -4.8768    0.0000 C   0  0  0  0  0  0  0  0  0  0  0  0
    2.7404   -3.1609    0.0000 C   0  0  0  0  0  0  0  0  0  0  0  0
    0.3790   -2.0157    0.0000 O   0  0  0  0  0  0  0  0  0  0  0  0
    1.8283   -4.5520    0.0000 O   0  0  0  0  0  0  0  0  0  0  0  0
    5.6222   -3.9980    0.0000 O   0  0  0  0  0  0  0  0  0  0  0  0
   -2.0490   -4.1605    0.0000 C   0  0  0  0  0  0  0  0  0  0  0  0
    7.2007   -1.5118    0.0000 C   0  0  0  0  0  0  0  0  0  0  0  0
    8.3501   -2.5030    0.0000 O   0  0  0  0  0  0  0  0  0  0  0  0
    3.4650   -1.0787    0.0000 O   0  0  0  0  0  0  0  0  0  0  0  0
    4.9101   -1.9241    0.0000 C   0  0  0  0  0  0  0  0  0  0  0  0
   -1.2327   -5.5765    0.0000 C   0  0  0  0  0  0  0  0  0  0  0  0
    7.6130   -3.7024    0.0000 N   0  0  0  0  0  0  0  0  0  0  0  0
   -2.4613   -4.8726    0.0000 C   0  0  0  0  0  0  0  0  0  0  0  0
    2.6654   -2.1282    0.0000 O   0  0  0  0  0  0  0  0  0  0  0  0
   -2.0490   -5.5848    0.0000 C   0  0  0  0  0  0  0  0  0  0  0  0
    6.4718   -1.0995    0.0000 C   0  0  0  0  0  0  0  0  0  0  0  0
   -3.2859   -4.8768    0.0000 O   0  0  0  0  0  0  0  0  0  0  0  0
    4.1854   -1.5035    0.0000 C   0  0  0  0  0  0  0  0  0  0  0  0
    8.2876   -4.1854    0.0000 C   0  0  0  0  0  0  0  0  0  0  0  0
    6.4718   -0.2541    0.0000 C   0  0  0  0  0  0  0  0  0  0  0  0
    5.7597   -1.5242    0.0000 C   0  0  0  0  0  0  0  0  0  0  0  0
   -3.6982   -5.5889    0.0000 C   0  0  0  0  0  0  0  0  0  0  0  0
    5.0100   -1.5035    0.0000 C   0  0  0  0  0  0  0  0  0  0  0  0
    4.1854   -0.6789    0.0000 C   0  0  0  0  0  0  0  0  0  0  0  0
    5.7514    0.1582    0.0000 C   0  0  0  0  0  0  0  0  0  0  0  0
    5.0267   -1.0995    0.0000 C   0  0  0  0  0  0  0  0  0  0  0  0
    5.0267   -0.2541    0.0000 C   0  0  0  0  0  0  0  0  0  0  0  0
  2  1  1  0  0  0  0
  3  1  1  0  0  0  0
  4  2  1  0  0  0  0
  5  3  1  0  0  0  0
  6 12  1  0  0  0  0
  7  4  1  0  0  0  0
  8  5  1  0  0  0  0
  9  6  1  0  0  0  0
 10  1  1  0  0  0  0
 11 17  1  0  0  0  0
 12 11  1  0  0  0  0
 13  9  1  0  0  0  0
 14  7  2  0  0  0  0
 15 13  1  0  0  0  0
 17 16  1  6  0  0  0
 17 19  1  0  0  0  0
 18  8  2  0  0  0  0
 19 10  1  0  0  0  0
 20  2  2  0  0  0  0
 21  3  2  0  0  0  0
 22  6  2  0  0  0  0
 23 14  1  0  0  0  0
 13 24  1  1  0  0  0
 25 15  2  0  0  0  0
 26 16  2  0  0  0  0
 12 27  1  1  0  0  0
 28 18  1  0  0  0  0
 29 15  1  0  0  0  0
 30 23  2  0  0  0  0
 31 16  1  0  0  0  0
 32 28  2  0  0  0  0
 33 24  1  0  0  0  0
 34 30  1  0  0  0  0
 35 27  1  0  0  0  0
 36 29  1  0  0  0  0
 37 33  2  0  0  0  0
 38 33  1  0  0  0  0
 39 34  1  0  0  0  0
 40 35  1  0  0  0  0
 41 35  1  0  0  0  0
 42 37  1  0  0  0  0
 43 38  2  0  0  0  0
 44 43  1  0  0  0  0
  4  5  2  0  0  0  0
 18 14  1  0  0  0  0
 30 32  1  0  0  0  0
 42 44  2  0  0  0  0
M  END
>  <Mol Weight>
602.6774

>  <Formula>
C33H38N4O7

>  <chembl_id>
CHEMBL161838

$$$$

  Mrv0541 06201412482D          

 42 47  0  0  0  0            999 V2000
   17.5914  -22.9235    0.0000 N   0  0  0  0  0  0  0  0  0  0  0  0
   18.3078  -22.5102    0.0000 C   0  0  0  0  0  0  0  0  0  0  0  0
   18.3050  -21.6797    0.0000 C   0  0  0  0  0  0  0  0  0  0  0  0
   17.5896  -21.2705    0.0000 C   0  0  0  0  0  0  0  0  0  0  0  0
   16.8766  -22.5107    0.0000 C   0  0  2  0  0  0  0  0  0  0  0  0
   16.8762  -21.6833    0.0000 C   0  0  1  0  0  0  0  0  0  0  0  0
   15.4464  -21.6840    0.0000 C   0  0  0  0  0  0  0  0  0  0  0  0
   15.4468  -22.5114    0.0000 C   0  0  0  0  0  0  0  0  0  0  0  0
   16.1642  -22.9270    0.0000 C   0  0  0  0  0  0  0  0  0  0  0  0
   17.5875  -20.4455    0.0000 O   0  0  0  0  0  0  0  0  0  0  0  0
   16.1583  -21.3250    0.0000 C   0  0  0  0  0  0  0  0  0  0  0  0
   19.0230  -22.9216    0.0000 O   0  0  0  0  0  0  0  0  0  0  0  0
   19.0179  -21.2645    0.0000 C   0  0  0  0  0  0  0  0  0  0  0  0
   19.7352  -21.6788    0.0000 N   0  0  0  0  0  0  0  0  0  0  0  0
   19.7312  -20.0298    0.0000 S   0  0  0  0  0  0  0  0  0  0  0  0
   19.0142  -20.4432    0.0000 N   0  0  0  0  0  0  0  0  0  0  0  0
   19.3125  -19.3125    0.0000 O   0  0  0  0  0  0  0  0  0  0  0  0
   20.1375  -19.3125    0.0000 O   0  0  0  0  0  0  0  0  0  0  0  0
   20.4471  -20.4418    0.0000 C   0  0  0  0  0  0  0  0  0  0  0  0
   20.4433  -21.2648    0.0000 C   0  0  0  0  0  0  0  0  0  0  0  0
   21.1530  -21.6779    0.0000 C   0  0  0  0  0  0  0  0  0  0  0  0
   21.8670  -21.2690    0.0000 C   0  0  0  0  0  0  0  0  0  0  0  0
   21.8669  -20.4428    0.0000 C   0  0  0  0  0  0  0  0  0  0  0  0
   21.1566  -20.0335    0.0000 C   0  0  0  0  0  0  0  0  0  0  0  0
   22.5812  -20.0300    0.0000 N   0  0  0  0  0  0  0  0  0  0  0  0
   23.2958  -20.4421    0.0000 S   0  0  0  0  0  0  0  0  0  0  0  0
   24.0101  -20.0293    0.0000 C   0  0  0  0  0  0  0  0  0  0  0  0
   22.8750  -21.1542    0.0000 O   0  0  0  0  0  0  0  0  0  0  0  0
   23.7000  -21.1542    0.0000 O   0  0  0  0  0  0  0  0  0  0  0  0
   17.5912  -23.7485    0.0000 C   0  0  0  0  0  0  0  0  0  0  0  0
   18.3056  -24.1612    0.0000 C   0  0  0  0  0  0  0  0  0  0  0  0
   18.3012  -24.9844    0.0000 C   0  0  0  0  0  0  0  0  0  0  0  0
   19.0147  -25.3970    0.0000 C   0  0  0  0  0  0  0  0  0  0  0  0
   19.7303  -24.9846    0.0000 C   0  0  0  0  0  0  0  0  0  0  0  0
   19.7278  -24.1554    0.0000 C   0  0  0  0  0  0  0  0  0  0  0  0
   19.0137  -23.7465    0.0000 C   0  0  0  0  0  0  0  0  0  0  0  0
   16.8708  -20.8542    0.0000 H   0  0  0  0  0  0  0  0  0  0  0  0
   16.8708  -23.3333    0.0000 H   0  0  0  0  0  0  0  0  0  0  0  0
   19.0141  -26.2220    0.0000 C   0  0  0  0  0  0  0  0  0  0  0  0
   20.4452  -25.3964    0.0000 F   0  0  0  0  0  0  0  0  0  0  0  0
   15.9458  -22.1250    0.0000 C   0  0  0  0  0  0  0  0  0  0  0  0
   16.7708  -22.1250    0.0000 C   0  0  0  0  0  0  0  0  0  0  0  0
 19 20  2  0  0  0  0
  8  9  1  0  0  0  0
 20 21  1  0  0  0  0
  4  6  1  0  0  0  0
 21 22  2  0  0  0  0
  4 10  1  0  0  0  0
 22 23  1  0  0  0  0
  5  6  1  0  0  0  0
 23 24  2  0  0  0  0
 24 19  1  0  0  0  0
  1  2  1  0  0  0  0
 23 25  1  0  0  0  0
  2 12  2  0  0  0  0
 25 26  1  0  0  0  0
  5  1  1  0  0  0  0
 26 27  1  0  0  0  0
  3 13  1  0  0  0  0
 26 28  2  0  0  0  0
 13 14  1  0  0  0  0
 26 29  2  0  0  0  0
  2  3  1  0  0  0  0
  1 30  1  0  0  0  0
 30 31  1  0  0  0  0
  3  4  2  0  0  0  0
 31 32  2  0  0  0  0
 13 16  2  0  0  0  0
 32 33  1  0  0  0  0
 14 20  1  0  0  0  0
 33 34  2  0  0  0  0
 19 15  1  0  0  0  0
 34 35  1  0  0  0  0
 15 16  1  0  0  0  0
 35 36  2  0  0  0  0
 36 31  1  0  0  0  0
  5  9  1  0  0  0  0
  6 37  1  6  0  0  0
 15 17  2  0  0  0  0
  5 38  1  6  0  0  0
  6 11  1  0  0  0  0
 33 39  1  0  0  0  0
 15 18  2  0  0  0  0
 34 40  1  0  0  0  0
 11  7  1  0  0  0  0
  9 41  1  0  0  0  0
  7  8  1  0  0  0  0
 41 42  1  0  0  0  0
 42 11  1  0  0  0  0
M  END
>  <Mol Weight>
588.671

>  <Formula>
C27H29FN4O6S2

>  <chembl_id>
CHEMBL1076286

$$$$

  Mrv0541 06201412482D          

 42 47  0  0  0  0            999 V2000
   -3.4711  -23.2235    0.0000 N   0  0  0  0  0  0  0  0  0  0  0  0
   -2.7547  -22.8102    0.0000 C   0  0  0  0  0  0  0  0  0  0  0  0
   -2.7575  -21.9797    0.0000 C   0  0  0  0  0  0  0  0  0  0  0  0
   -3.4729  -21.5705    0.0000 C   0  0  0  0  0  0  0  0  0  0  0  0
   -4.1859  -22.8107    0.0000 C   0  0  2  0  0  0  0  0  0  0  0  0
   -4.1863  -21.9833    0.0000 C   0  0  1  0  0  0  0  0  0  0  0  0
   -5.6161  -21.9840    0.0000 C   0  0  0  0  0  0  0  0  0  0  0  0
   -5.6157  -22.8114    0.0000 C   0  0  0  0  0  0  0  0  0  0  0  0
   -4.8983  -23.2270    0.0000 C   0  0  0  0  0  0  0  0  0  0  0  0
   -3.4750  -20.7455    0.0000 O   0  0  0  0  0  0  0  0  0  0  0  0
   -4.9042  -21.6250    0.0000 C   0  0  0  0  0  0  0  0  0  0  0  0
   -2.0395  -23.2216    0.0000 O   0  0  0  0  0  0  0  0  0  0  0  0
   -2.0446  -21.5645    0.0000 C   0  0  0  0  0  0  0  0  0  0  0  0
   -1.3273  -21.9788    0.0000 N   0  0  0  0  0  0  0  0  0  0  0  0
   -1.3313  -20.3298    0.0000 S   0  0  0  0  0  0  0  0  0  0  0  0
   -2.0483  -20.7432    0.0000 N   0  0  0  0  0  0  0  0  0  0  0  0
   -1.7500  -19.6125    0.0000 O   0  0  0  0  0  0  0  0  0  0  0  0
   -0.9250  -19.6125    0.0000 O   0  0  0  0  0  0  0  0  0  0  0  0
   -0.6154  -20.7418    0.0000 C   0  0  0  0  0  0  0  0  0  0  0  0
   -0.6192  -21.5648    0.0000 C   0  0  0  0  0  0  0  0  0  0  0  0
    0.0905  -21.9779    0.0000 C   0  0  0  0  0  0  0  0  0  0  0  0
    0.8045  -21.5690    0.0000 C   0  0  0  0  0  0  0  0  0  0  0  0
    0.8044  -20.7428    0.0000 C   0  0  0  0  0  0  0  0  0  0  0  0
    0.0941  -20.3335    0.0000 C   0  0  0  0  0  0  0  0  0  0  0  0
    1.5187  -20.3300    0.0000 N   0  0  0  0  0  0  0  0  0  0  0  0
    2.2333  -20.7421    0.0000 S   0  0  0  0  0  0  0  0  0  0  0  0
    2.9476  -20.3293    0.0000 C   0  0  0  0  0  0  0  0  0  0  0  0
    1.8125  -21.4542    0.0000 O   0  0  0  0  0  0  0  0  0  0  0  0
    2.6375  -21.4542    0.0000 O   0  0  0  0  0  0  0  0  0  0  0  0
   -3.4713  -24.0485    0.0000 C   0  0  0  0  0  0  0  0  0  0  0  0
   -2.7569  -24.4612    0.0000 C   0  0  0  0  0  0  0  0  0  0  0  0
   -2.7613  -25.2844    0.0000 C   0  0  0  0  0  0  0  0  0  0  0  0
   -2.0478  -25.6970    0.0000 C   0  0  0  0  0  0  0  0  0  0  0  0
   -1.3322  -25.2846    0.0000 C   0  0  0  0  0  0  0  0  0  0  0  0
   -1.3347  -24.4554    0.0000 C   0  0  0  0  0  0  0  0  0  0  0  0
   -2.0488  -24.0465    0.0000 C   0  0  0  0  0  0  0  0  0  0  0  0
   -4.1917  -21.1542    0.0000 H   0  0  0  0  0  0  0  0  0  0  0  0
   -4.1917  -23.6333    0.0000 H   0  0  0  0  0  0  0  0  0  0  0  0
   -3.4770  -25.6948    0.0000 Cl  0  0  0  0  0  0  0  0  0  0  0  0
   -0.6173  -25.6964    0.0000 F   0  0  0  0  0  0  0  0  0  0  0  0
   -5.3167  -22.5083    0.0000 C   0  0  0  0  0  0  0  0  0  0  0  0
   -4.4917  -22.5083    0.0000 C   0  0  0  0  0  0  0  0  0  0  0  0
 19 20  2  0  0  0  0
  8  9  1  0  0  0  0
 20 21  1  0  0  0  0
  4  6  1  0  0  0  0
 21 22  2  0  0  0  0
  4 10  1  0  0  0  0
 22 23  1  0  0  0  0
  5  6  1  0  0  0  0
 23 24  2  0  0  0  0
 24 19  1  0  0  0  0
  1  2  1  0  0  0  0
 23 25  1  0  0  0  0
  2 12  2  0  0  0  0
 25 26  1  0  0  0  0
  5  1  1  0  0  0  0
 26 27  1  0  0  0  0
  3 13  1  0  0  0  0
 26 28  2  0  0  0  0
 13 14  1  0  0  0  0
 26 29  2  0  0  0  0
  2  3  1  0  0  0  0
  1 30  1  0  0  0  0
 30 31  1  0  0  0  0
  3  4  2  0  0  0  0
 31 32  2  0  0  0  0
 13 16  2  0  0  0  0
 32 33  1  0  0  0  0
 14 20  1  0  0  0  0
 33 34  2  0  0  0  0
 19 15  1  0  0  0  0
 34 35  1  0  0  0  0
 15 16  1  0  0  0  0
 35 36  2  0  0  0  0
 36 31  1  0  0  0  0
  5  9  1  0  0  0  0
  6 37  1  6  0  0  0
 15 17  2  0  0  0  0
  5 38  1  6  0  0  0
  6 11  1  0  0  0  0
 32 39  1  0  0  0  0
 15 18  2  0  0  0  0
 34 40  1  0  0  0  0
 11  7  1  0  0  0  0
  9 41  1  0  0  0  0
  7  8  1  0  0  0  0
 41 42  1  0  0  0  0
 42 11  1  0  0  0  0
M  END
>  <Mol Weight>
609.089

>  <Formula>
C26H26ClFN4O6S2

>  <chembl_id>
CHEMBL1076290

$$$$

  Mrv0541 06201412482D          

 41 46  0  0  0  0            999 V2000
    8.8277   -7.9333    0.0000 C   0  0  0  0  0  0  0  0  0  0  0  0
    8.8266   -8.7607    0.0000 C   0  0  0  0  0  0  0  0  0  0  0  0
    9.5414   -9.1735    0.0000 C   0  0  0  0  0  0  0  0  0  0  0  0
    9.5396   -7.5205    0.0000 C   0  0  0  0  0  0  0  0  0  0  0  0
   10.2550   -7.9297    0.0000 C   0  0  0  0  0  0  0  0  0  0  0  0
   10.2538   -8.7627    0.0000 C   0  0  0  0  0  0  0  0  0  0  0  0
   10.9707   -9.1780    0.0000 C   0  0  0  0  0  0  0  0  0  0  0  0
   11.6933   -8.7648    0.0000 C   0  0  0  0  0  0  0  0  0  0  0  0
   10.9731   -7.5119    0.0000 C   0  0  0  0  0  0  0  0  0  0  0  0
   11.6908   -7.9317    0.0000 C   0  0  0  0  0  0  0  0  0  0  0  0
   12.3107   -7.3797    0.0000 C   0  0  0  0  0  0  0  0  0  0  0  0
   11.9780   -6.6171    0.0000 N   0  0  0  0  0  0  0  0  0  0  0  0
   11.1517   -6.6991    0.0000 N   0  0  0  0  0  0  0  0  0  0  0  0
   13.0304   -7.7829    0.0000 C   0  0  0  0  0  0  0  0  0  0  0  0
   13.7395   -7.3612    0.0000 O   0  0  0  0  0  0  0  0  0  0  0  0
   13.0411   -8.6078    0.0000 N   0  0  0  0  0  0  0  0  0  0  0  0
    8.1132   -7.5210    0.0000 N   0  0  0  0  0  0  0  0  0  0  0  0
    7.3988   -7.9336    0.0000 C   0  0  0  0  0  0  0  0  0  0  0  0
    6.6842   -7.5213    0.0000 O   0  0  0  0  0  0  0  0  0  0  0  0
    7.3990   -8.7586    0.0000 C   0  0  0  0  0  0  0  0  0  0  0  0
    6.6831   -9.1702    0.0000 C   0  0  0  0  0  0  0  0  0  0  0  0
    6.6829   -9.9944    0.0000 C   0  0  0  0  0  0  0  0  0  0  0  0
    7.3980  -10.4076    0.0000 N   0  0  0  0  0  0  0  0  0  0  0  0
    8.1148   -9.9904    0.0000 C   0  0  0  0  0  0  0  0  0  0  0  0
    8.1114   -9.1676    0.0000 C   0  0  0  0  0  0  0  0  0  0  0  0
   10.4426   -6.2792    0.0000 C   0  0  0  0  0  0  0  0  0  0  0  0
   10.4478   -5.4531    0.0000 C   0  0  0  0  0  0  0  0  0  0  0  0
    9.0175   -6.2758    0.0000 C   0  0  0  0  0  0  0  0  0  0  0  0
    9.7298   -6.6878    0.0000 C   0  0  0  0  0  0  0  0  0  0  0  0
    9.0226   -5.4487    0.0000 C   0  0  0  0  0  0  0  0  0  0  0  0
    9.7385   -5.0392    0.0000 C   0  0  0  0  0  0  0  0  0  0  0  0
    5.9690   -8.7569    0.0000 Cl  0  0  0  0  0  0  0  0  0  0  0  0
    8.3102   -5.0326    0.0000 F   0  0  0  0  0  0  0  0  0  0  0  0
    8.8336  -10.4000    0.0000 N   0  0  0  0  0  0  0  0  0  0  0  0
    8.8347  -11.2259    0.0000 C   0  0  0  0  0  0  0  0  0  0  0  0
    9.5466  -11.6357    0.0000 C   0  0  0  0  0  0  0  0  0  0  0  0
   10.2620  -11.2240    0.0000 N   0  0  0  0  0  0  0  0  0  0  0  0
   10.2608  -10.3980    0.0000 C   0  0  1  0  0  0  0  0  0  0  0  0
    9.5444   -9.9837    0.0000 C   0  0  0  0  0  0  0  0  0  0  0  0
   10.9752   -9.9853    0.0000 C   0  0  0  0  0  0  0  0  0  0  0  0
   10.9765  -11.6365    0.0000 C   0  0  0  0  0  0  0  0  0  0  0  0
 18 19  2  0  0  0  0
  9 10  2  0  0  0  0
 18 20  1  0  0  0  0
  5  4  2  0  0  0  0
 20 21  2  0  0  0  0
  4  1  1  0  0  0  0
 21 22  1  0  0  0  0
  5  6  1  0  0  0  0
 22 23  2  0  0  0  0
 23 24  1  0  0  0  0
  2  3  1  0  0  0  0
 24 25  2  0  0  0  0
 25 20  1  0  0  0  0
 10 11  1  0  0  0  0
 11 12  2  0  0  0  0
 26 27  2  0  0  0  0
 27 31  1  0  0  0  0
 12 13  1  0  0  0  0
 30 28  1  0  0  0  0
 13  9  1  0  0  0  0
 28 29  2  0  0  0  0
 29 26  1  0  0  0  0
 13 26  1  0  0  0  0
 30 31  2  0  0  0  0
  3  6  2  0  0  0  0
 11 14  1  0  0  0  0
  1  2  2  0  0  0  0
 21 32  1  0  0  0  0
 14 15  2  0  0  0  0
 30 33  1  0  0  0  0
 34 35  1  0  0  0  0
  5  9  1  0  0  0  0
 14 16  1  0  0  0  0
  6  7  1  0  0  0  0
  1 17  1  0  0  0  0
  7  8  1  0  0  0  0
 17 18  1  0  0  0  0
 34 39  1  0  0  0  0
 35 36  1  0  0  0  0
 36 37  1  0  0  0  0
 37 38  1  0  0  0  0
 38 39  1  0  0  0  0
 24 34  1  0  0  0  0
  8 10  1  0  0  0  0
 38 40  1  1  0  0  0
 37 41  1  0  0  0  0
M  END
>  <Mol Weight>
574.048

>  <Formula>
C30H29ClFN7O2

>  <chembl_id>
CHEMBL601080

$$$$

  Mrv0541 06201412482D          

 41 45  0  0  0  0            999 V2000
   15.4917   -5.1708    0.0000 C   0  0  0  0  0  0  0  0  0  0  0  0
   15.4917   -5.9958    0.0000 C   0  0  0  0  0  0  0  0  0  0  0  0
   16.2037   -6.4042    0.0000 C   0  0  0  0  0  0  0  0  0  0  0  0
   16.9157   -5.9958    0.0000 C   0  0  0  0  0  0  0  0  0  0  0  0
   14.7760   -4.7604    0.0000 O   0  0  0  0  0  0  0  0  0  0  0  0
   16.2037   -4.7542    0.0000 N   0  0  0  0  0  0  0  0  0  0  0  0
   16.9166   -5.1714    0.0000 C   0  0  0  0  0  0  0  0  0  0  0  0
   17.5337   -4.6223    0.0000 C   0  0  1  0  0  0  0  0  0  0  0  0
   17.2022   -3.8657    0.0000 C   0  0  2  0  0  0  0  0  0  0  0  0
   16.3803   -3.9473    0.0000 C   0  0  0  0  0  0  0  0  0  0  0  0
   17.6189   -3.1537    0.0000 O   0  0  0  0  0  0  0  0  0  0  0  0
   17.6125   -2.3250    0.0000 C   0  0  1  0  0  0  0  0  0  0  0  0
   18.3238   -1.9070    0.0000 C   0  0  0  0  0  0  0  0  0  0  0  0
   16.8949   -1.9180    0.0000 C   0  0  0  0  0  0  0  0  0  0  0  0
   19.0391   -2.3145    0.0000 C   0  0  0  0  0  0  0  0  0  0  0  0
   19.7499   -1.8972    0.0000 C   0  0  0  0  0  0  0  0  0  0  0  0
   19.7440   -1.0713    0.0000 C   0  0  0  0  0  0  0  0  0  0  0  0
   19.0213   -0.6645    0.0000 C   0  0  0  0  0  0  0  0  0  0  0  0
   18.3135   -1.0842    0.0000 C   0  0  0  0  0  0  0  0  0  0  0  0
   19.0121    0.1604    0.0000 C   0  0  0  0  0  0  0  0  0  0  0  0
   19.7219    0.5809    0.0000 F   0  0  0  0  0  0  0  0  0  0  0  0
   18.2930    0.5649    0.0000 F   0  0  0  0  0  0  0  0  0  0  0  0
   19.0042    0.9875    0.0000 F   0  0  0  0  0  0  0  0  0  0  0  0
   20.4673   -2.3045    0.0000 C   0  0  0  0  0  0  0  0  0  0  0  0
   20.4733   -3.1295    0.0000 F   0  0  0  0  0  0  0  0  0  0  0  0
   21.1788   -1.8869    0.0000 F   0  0  0  0  0  0  0  0  0  0  0  0
   21.1792   -2.7167    0.0000 F   0  0  0  0  0  0  0  0  0  0  0  0
   18.3354   -4.7970    0.0000 C   0  0  0  0  0  0  0  0  0  0  0  0
   18.5847   -5.5846    0.0000 C   0  0  0  0  0  0  0  0  0  0  0  0
   19.3898   -5.7611    0.0000 C   0  0  0  0  0  0  0  0  0  0  0  0
   19.9464   -5.1510    0.0000 C   0  0  0  0  0  0  0  0  0  0  0  0
   19.6923   -4.3616    0.0000 C   0  0  0  0  0  0  0  0  0  0  0  0
   18.8878   -4.1888    0.0000 C   0  0  0  0  0  0  0  0  0  0  0  0
   20.7526   -5.3262    0.0000 F   0  0  0  0  0  0  0  0  0  0  0  0
   16.2032   -7.2283    0.0000 C   0  0  0  0  0  0  0  0  0  0  0  0
   15.4871   -7.6402    0.0000 C   0  0  0  0  0  0  0  0  0  0  0  0
   15.4868   -8.4644    0.0000 C   0  0  0  0  0  0  0  0  0  0  0  0
   16.2018   -8.8778    0.0000 N   0  0  0  0  0  0  0  0  0  0  0  0
   16.9186   -8.4608    0.0000 C   0  0  0  0  0  0  0  0  0  0  0  0
   16.9155   -7.6380    0.0000 C   0  0  0  0  0  0  0  0  0  0  0  0
   14.7721   -8.8766    0.0000 F   0  0  0  0  0  0  0  0  0  0  0  0
  8  9  1  0  0  0  0
 18 20  1  0  0  0  0
  9 10  1  0  0  0  0
 20 21  1  0  0  0  0
 10  6  1  0  0  0  0
 20 22  1  0  0  0  0
 20 23  1  0  0  0  0
  9 11  1  6  0  0  0
 16 24  1  0  0  0  0
  1  5  2  0  0  0  0
 24 25  1  0  0  0  0
 11 12  1  0  0  0  0
 24 26  1  0  0  0  0
  6  7  1  0  0  0  0
 24 27  1  0  0  0  0
 12 13  1  0  0  0  0
  1  2  1  0  0  0  0
 28 29  2  0  0  0  0
 12 14  1  6  0  0  0
 29 30  1  0  0  0  0
  1  6  1  0  0  0  0
 30 31  2  0  0  0  0
 13 15  2  0  0  0  0
 31 32  1  0  0  0  0
  2  3  2  0  0  0  0
 32 33  2  0  0  0  0
 33 28  1  0  0  0  0
  8 28  1  1  0  0  0
 15 16  1  0  0  0  0
 31 34  1  0  0  0  0
  3  4  1  0  0  0  0
 16 17  2  0  0  0  0
 35 36  2  0  0  0  0
  4  7  1  0  0  0  0
 36 37  1  0  0  0  0
 17 18  1  0  0  0  0
 37 38  2  0  0  0  0
  7  8  1  0  0  0  0
 38 39  1  0  0  0  0
 18 19  2  0  0  0  0
 39 40  2  0  0  0  0
 40 35  1  0  0  0  0
  3 35  1  0  0  0  0
 19 13  1  0  0  0  0
 37 41  1  0  0  0  0
M  END
>  <Mol Weight>
582.4844

>  <Formula>
C29H22F8N2O2

>  <chembl_id>
CHEMBL1090649

$$$$

  Mrv0541 06201412482D          

 42 46  0  0  0  0            999 V2000
    4.4186   -8.8988    0.0000 C   0  0  1  0  0  0  0  0  0  0  0  0
    5.1390   -8.4884    0.0000 C   0  0  2  0  0  0  0  0  0  0  0  0
    4.9755   -7.6743    0.0000 C   0  0  1  0  0  0  0  0  0  0  0  0
    4.1494   -7.5847    0.0000 O   0  0  0  0  0  0  0  0  0  0  0  0
    3.8089   -8.3389    0.0000 C   0  0  2  0  0  0  0  0  0  0  0  0
    5.5361   -7.0626    0.0000 N   0  0  0  0  0  0  0  0  0  0  0  0
    6.3662   -7.0706    0.0000 C   0  0  0  0  0  0  0  0  0  0  0  0
    6.7854   -6.3643    0.0000 N   0  0  0  0  0  0  0  0  0  0  0  0
    6.3813   -5.6398    0.0000 C   0  0  0  0  0  0  0  0  0  0  0  0
    5.5534   -5.6262    0.0000 C   0  0  0  0  0  0  0  0  0  0  0  0
    5.1279   -6.3427    0.0000 C   0  0  0  0  0  0  0  0  0  0  0  0
    6.7720   -7.7936    0.0000 O   0  0  0  0  0  0  0  0  0  0  0  0
    6.8050   -4.9253    0.0000 O   0  0  0  0  0  0  0  0  0  0  0  0
    2.9788   -8.3368    0.0000 C   0  0  0  0  0  0  0  0  0  0  0  0
    5.8960   -8.8307    0.0000 O   0  0  0  0  0  0  0  0  0  0  0  0
    4.3286   -9.7223    0.0000 O   0  0  0  0  0  0  0  0  0  0  0  0
    2.5687   -7.6209    0.0000 N   0  0  0  0  0  0  0  0  0  0  0  0
    1.7437   -7.6182    0.0000 C   0  0  0  0  0  0  0  0  0  0  0  0
    1.3336   -6.9024    0.0000 C   0  0  0  0  0  0  0  0  0  0  0  0
    1.3288   -8.3313    0.0000 O   0  0  0  0  0  0  0  0  0  0  0  0
    0.5086   -6.8996    0.0000 N   0  0  0  0  0  0  0  0  0  0  0  0
    0.0261   -6.2310    0.0000 C   0  0  0  0  0  0  0  0  0  0  0  0
    0.0217   -7.5658    0.0000 C   0  0  0  0  0  0  0  0  0  0  0  0
    0.2836   -5.4472    0.0000 O   0  0  0  0  0  0  0  0  0  0  0  0
    0.2742   -8.3511    0.0000 O   0  0  0  0  0  0  0  0  0  0  0  0
   -0.7621   -7.3083    0.0000 C   0  0  2  0  0  0  0  0  0  0  0  0
   -0.7639   -6.4867    0.0000 C   0  0  1  0  0  0  0  0  0  0  0  0
   -1.5458   -6.2345    0.0000 N   0  0  0  0  0  0  0  0  0  0  0  0
   -2.0274   -6.9002    0.0000 C   0  0  1  0  0  0  0  0  0  0  0  0
   -1.5430   -7.5638    0.0000 C   0  0  2  0  0  0  0  0  0  0  0  0
   -0.7708   -5.6583    0.0000 H   0  0  0  0  0  0  0  0  0  0  0  0
   -1.7962   -8.3490    0.0000 C   0  0  0  0  0  0  0  0  0  0  0  0
   -2.6032   -8.5256    0.0000 O   0  0  0  0  0  0  0  0  0  0  0  0
   -1.2432   -8.9642    0.0000 O   0  0  0  0  0  0  0  0  0  0  0  0
   -3.1589   -7.9158    0.0000 C   0  0  0  0  0  0  0  0  0  0  0  0
   -2.8524   -6.9020    0.0000 C   0  0  0  0  0  0  0  0  0  0  0  0
   -0.7667   -8.1333    0.0000 H   0  0  0  0  0  0  0  0  0  0  0  0
   -3.2620   -6.1869    0.0000 C   0  0  0  0  0  0  0  0  0  0  0  0
   -4.0863   -6.1884    0.0000 C   0  0  0  0  0  0  0  0  0  0  0  0
   -4.4980   -6.9043    0.0000 C   0  0  0  0  0  0  0  0  0  0  0  0
   -4.0796   -7.6202    0.0000 C   0  0  0  0  0  0  0  0  0  0  0  0
   -3.2567   -7.6153    0.0000 C   0  0  0  0  0  0  0  0  0  0  0  0
  7  8  1  0  0  0  0
 19 21  1  0  0  0  0
 21 22  1  0  0  0  0
  8  9  1  0  0  0  0
  9 10  1  0  0  0  0
 22 27  1  0  0  0  0
 26 23  1  0  0  0  0
 23 21  1  0  0  0  0
 10 11  2  0  0  0  0
 22 24  2  0  0  0  0
  1  2  1  0  0  0  0
 23 25  2  0  0  0  0
 26 27  1  0  0  0  0
  7 12  2  0  0  0  0
  3  6  1  1  0  0  0
  9 13  2  0  0  0  0
  6  7  1  0  0  0  0
  5 14  1  1  0  0  0
 27 28  1  0  0  0  0
 28 29  1  0  0  0  0
 29 30  1  0  0  0  0
 30 26  1  0  0  0  0
 27 31  1  6  0  0  0
  2 15  1  6  0  0  0
 30 32  1  1  0  0  0
  2  3  1  0  0  0  0
  1 16  1  6  0  0  0
 32 33  1  0  0  0  0
 32 34  2  0  0  0  0
  3  4  1  0  0  0  0
 33 35  1  0  0  0  0
 14 17  1  0  0  0  0
 29 36  1  1  0  0  0
  4  5  1  0  0  0  0
 26 37  1  6  0  0  0
 17 18  1  0  0  0  0
 36 38  2  0  0  0  0
  5  1  1  0  0  0  0
 38 39  1  0  0  0  0
 18 19  1  0  0  0  0
 39 40  2  0  0  0  0
  6 11  1  0  0  0  0
 40 41  1  0  0  0  0
 18 20  2  0  0  0  0
 41 42  2  0  0  0  0
 42 36  1  0  0  0  0
M  END
>  <Mol Weight>
557.5094

>  <Formula>
C25H27N5O10

>  <chembl_id>
CHEMBL1090660

$$$$

  Mrv0541 06201412482D          

 41 45  0  0  0  0            999 V2000
   20.6593  -20.0326    0.0000 C   0  0  0  0  0  0  0  0  0  0  0  0
   20.6528  -19.2052    0.0000 C   0  0  0  0  0  0  0  0  0  0  0  0
   19.9342  -18.7990    0.0000 C   0  0  0  0  0  0  0  0  0  0  0  0
   19.9514  -20.4520    0.0000 C   0  0  0  0  0  0  0  0  0  0  0  0
   19.2322  -20.0495    0.0000 C   0  0  0  0  0  0  0  0  0  0  0  0
   19.2237  -19.2227    0.0000 C   0  0  0  0  0  0  0  0  0  0  0  0
   18.5046  -18.8184    0.0000 C   0  0  0  0  0  0  0  0  0  0  0  0
   17.7935  -19.2398    0.0000 C   0  0  0  0  0  0  0  0  0  0  0  0
   17.8060  -20.0697    0.0000 C   0  0  0  0  0  0  0  0  0  0  0  0
   18.5256  -20.4702    0.0000 C   0  0  0  0  0  0  0  0  0  0  0  0
   17.0980  -20.4931    0.0000 C   0  0  0  0  0  0  0  0  0  0  0  0
   16.3772  -20.0917    0.0000 C   0  0  0  0  0  0  0  0  0  0  0  0
   16.3645  -19.2668    0.0000 O   0  0  0  0  0  0  0  0  0  0  0  0
   15.6438  -18.8653    0.0000 C   0  0  0  0  0  0  0  0  0  0  0  0
   15.6360  -18.0421    0.0000 C   0  0  0  0  0  0  0  0  0  0  0  0
   14.9161  -17.6407    0.0000 C   0  0  0  0  0  0  0  0  0  0  0  0
   14.2071  -18.0642    0.0000 C   0  0  0  0  0  0  0  0  0  0  0  0
   14.2225  -18.8933    0.0000 C   0  0  0  0  0  0  0  0  0  0  0  0
   14.9429  -19.2910    0.0000 C   0  0  0  0  0  0  0  0  0  0  0  0
   16.3454  -17.6209    0.0000 C   0  0  0  0  0  0  0  0  0  0  0  0
   17.0649  -18.0247    0.0000 C   0  0  0  0  0  0  0  0  0  0  0  0
   17.7743  -17.6035    0.0000 C   0  0  0  0  0  0  0  0  0  0  0  0
   18.4964  -18.0052    0.0000 N   0  0  0  0  0  0  0  0  0  0  0  0
   17.7669  -16.7765    0.0000 O   0  0  0  0  0  0  0  0  0  0  0  0
   13.5160  -19.3193    0.0000 C   0  0  0  0  0  0  0  0  0  0  0  0
   13.5316  -20.1441    0.0000 N   0  0  0  0  0  0  0  0  0  0  0  0
   12.8736  -20.6449    0.0000 C   0  0  0  0  0  0  0  0  0  0  0  0
   13.1433  -21.4246    0.0000 C   0  0  0  0  0  0  0  0  0  0  0  0
   13.9682  -21.4089    0.0000 C   0  0  0  0  0  0  0  0  0  0  0  0
   14.2082  -20.6196    0.0000 N   0  0  0  0  0  0  0  0  0  0  0  0
   19.2042  -17.5814    0.0000 S   0  0  0  0  0  0  0  0  0  0  0  0
   19.1911  -16.7565    0.0000 C   0  0  0  0  0  0  0  0  0  0  0  0
   20.0000  -17.3625    0.0000 O   0  0  0  0  0  0  0  0  0  0  0  0
   19.4167  -18.3750    0.0000 O   0  0  0  0  0  0  0  0  0  0  0  0
   19.8990  -16.3353    0.0000 C   0  0  0  0  0  0  0  0  0  0  0  0
   19.8862  -15.5111    0.0000 C   0  0  0  0  0  0  0  0  0  0  0  0
   19.1647  -15.1092    0.0000 C   0  0  0  0  0  0  0  0  0  0  0  0
   18.4546  -15.5375    0.0000 C   0  0  0  0  0  0  0  0  0  0  0  0
   18.4708  -16.3602    0.0000 C   0  0  0  0  0  0  0  0  0  0  0  0
   20.5942  -15.0876    0.0000 Cl  0  0  0  0  0  0  0  0  0  0  0  0
   19.1505  -14.2843    0.0000 F   0  0  0  0  0  0  0  0  0  0  0  0
  4  1  1  0  0  0  0
 15 20  1  0  0  0  0
  9 10  2  0  0  0  0
 20 21  1  0  0  0  0
 10  5  1  0  0  0  0
 21 22  1  0  0  0  0
  9 11  1  0  0  0  0
 22 23  1  0  0  0  0
 22 24  2  0  0  0  0
  2  3  1  0  0  0  0
 18 25  1  0  0  0  0
 11 12  1  0  0  0  0
 25 26  1  0  0  0  0
 26 27  1  0  0  0  0
  5  6  1  0  0  0  0
 12 13  1  0  0  0  0
  3  6  2  0  0  0  0
 13 14  1  0  0  0  0
 27 28  2  0  0  0  0
 28 29  1  0  0  0  0
 29 30  2  0  0  0  0
 30 26  1  0  0  0  0
  6  7  1  0  0  0  0
 23 31  1  0  0  0  0
 14 15  2  0  0  0  0
 31 32  1  0  0  0  0
  1  2  2  0  0  0  0
 31 33  2  0  0  0  0
 15 16  1  0  0  0  0
 31 34  2  0  0  0  0
  7  8  2  0  0  0  0
 32 35  2  0  0  0  0
 16 17  2  0  0  0  0
 35 36  1  0  0  0  0
  5  4  2  0  0  0  0
 36 37  2  0  0  0  0
 17 18  1  0  0  0  0
 37 38  1  0  0  0  0
  8  9  1  0  0  0  0
 38 39  2  0  0  0  0
 39 32  1  0  0  0  0
 18 19  2  0  0  0  0
 36 40  1  0  0  0  0
 19 14  1  0  0  0  0
 37 41  1  0  0  0  0
M  END
>  <Mol Weight>
592.08

>  <Formula>
C31H27ClFN3O4S

>  <chembl_id>
CHEMBL1091740

$$$$

  Mrv0541 06201412482D          

 42 46  0  0  0  0            999 V2000
    0.7000   -3.7500    0.0000 C   0  0  0  0  0  0  0  0  0  0  0  0
    1.4125   -3.3375    0.0000 C   0  0  0  0  0  0  0  0  0  0  0  0
   -0.0208   -3.3375    0.0000 N   0  0  0  0  0  0  0  0  0  0  0  0
    0.7000   -2.1000    0.0000 N   0  0  0  0  0  0  0  0  0  0  0  0
   -0.0208   -2.5125    0.0000 C   0  0  0  0  0  0  0  0  0  0  0  0
    0.7042    1.2083    0.0000 N   0  3  0  0  0  0  0  0  0  0  0  0
    1.4125   -2.5125    0.0000 C   0  0  0  0  0  0  0  0  0  0  0  0
    4.2750   -0.0250    0.0000 C   0  0  0  0  0  0  0  0  0  0  0  0
    1.4250    1.6250    0.0000 C   0  0  0  0  0  0  0  0  0  0  0  0
    4.2750   -3.3375    0.0000 N   0  0  0  0  0  0  0  0  0  0  0  0
    5.7125   -3.3250    0.0000 C   0  0  0  0  0  0  0  0  0  0  0  0
    6.4292   -2.9000    0.0000 C   0  0  0  0  0  0  0  0  0  0  0  0
    3.5625    0.3875    0.0000 N   0  0  0  0  0  0  0  0  0  0  0  0
   -0.7333   -1.2625    0.0000 N   0  0  0  0  0  0  0  0  0  0  0  0
    2.1250   -3.7500    0.0000 C   0  0  0  0  0  0  0  0  0  0  0  0
   -0.0208    1.6208    0.0000 O   0  5  0  0  0  0  0  0  0  0  0  0
    0.7042    0.3833    0.0000 O   0  0  0  0  0  0  0  0  0  0  0  0
    4.2667   -0.8500    0.0000 C   0  0  0  0  0  0  0  0  0  0  0  0
    4.2667   -2.5042    0.0000 C   0  0  0  0  0  0  0  0  0  0  0  0
    0.7000   -4.5750    0.0000 O   0  0  0  0  0  0  0  0  0  0  0  0
   -0.7375   -2.0917    0.0000 C   0  0  0  0  0  0  0  0  0  0  0  0
    3.5625   -3.7500    0.0000 C   0  0  0  0  0  0  0  0  0  0  0  0
    2.8417   -3.3375    0.0000 C   0  0  0  0  0  0  0  0  0  0  0  0
    2.1417    1.2125    0.0000 C   0  0  0  0  0  0  0  0  0  0  0  0
    4.9917    0.3750    0.0000 O   0  0  0  0  0  0  0  0  0  0  0  0
    2.1250   -2.1000    0.0000 C   0  0  0  0  0  0  0  0  0  0  0  0
    3.5500   -1.2625    0.0000 C   0  0  0  0  0  0  0  0  0  0  0  0
    4.9792   -1.2625    0.0000 C   0  0  0  0  0  0  0  0  0  0  0  0
    4.9792   -2.0917    0.0000 C   0  0  0  0  0  0  0  0  0  0  0  0
    3.5500   -2.0917    0.0000 C   0  0  0  0  0  0  0  0  0  0  0  0
   -0.7333    0.3875    0.0000 O   0  0  0  0  0  0  0  0  0  0  0  0
    3.5667    1.2125    0.0000 C   0  0  0  0  0  0  0  0  0  0  0  0
    4.9917   -3.7417    0.0000 C   0  0  0  0  0  0  0  0  0  0  0  0
    2.8542    1.6250    0.0000 C   0  0  0  0  0  0  0  0  0  0  0  0
    2.8417   -2.5125    0.0000 C   0  0  0  0  0  0  0  0  0  0  0  0
   -1.4458   -0.8500    0.0000 C   0  0  0  0  0  0  0  0  0  0  0  0
   -0.0208   -0.8500    0.0000 C   0  0  0  0  0  0  0  0  0  0  0  0
    1.4250    2.4583    0.0000 C   0  0  0  0  0  0  0  0  0  0  0  0
    2.1417    2.8708    0.0000 C   0  0  0  0  0  0  0  0  0  0  0  0
   -1.4458   -0.0250    0.0000 C   0  0  0  0  0  0  0  0  0  0  0  0
   -0.0208   -0.0250    0.0000 C   0  0  0  0  0  0  0  0  0  0  0  0
    2.8542    2.4583    0.0000 C   0  0  0  0  0  0  0  0  0  0  0  0
  2  1  1  0  0  0  0
  3  1  2  0  0  0  0
  4  5  2  0  0  0  0
  5  3  1  0  0  0  0
  6  9  1  0  0  0  0
  7  2  2  0  0  0  0
  8 18  1  0  0  0  0
  9 24  2  0  0  0  0
 10 22  1  0  0  0  0
 11 33  1  0  0  0  0
 12 11  3  0  0  0  0
 13  8  1  0  0  0  0
 14 21  1  0  0  0  0
 15  2  1  0  0  0  0
 16  6  1  0  0  0  0
 17  6  2  0  0  0  0
 18 27  2  0  0  0  0
 19 10  1  0  0  0  0
 20  1  1  0  0  0  0
 21  5  1  0  0  0  0
 22 23  1  0  0  0  0
 23 15  2  0  0  0  0
 24 34  1  0  0  0  0
 25  8  2  0  0  0  0
 26  7  1  0  0  0  0
 27 30  1  0  0  0  0
 28 29  2  0  0  0  0
 29 19  1  0  0  0  0
 30 19  2  0  0  0  0
 31 41  1  0  0  0  0
 32 13  1  0  0  0  0
 33 10  1  0  0  0  0
 34 32  1  0  0  0  0
 35 23  1  0  0  0  0
 36 14  1  0  0  0  0
 37 14  1  0  0  0  0
 38 39  2  0  0  0  0
 39 42  1  0  0  0  0
 40 36  1  0  0  0  0
 41 37  1  0  0  0  0
 42 34  2  0  0  0  0
  4  7  1  0  0  0  0
 35 26  2  0  0  0  0
 31 40  1  0  0  0  0
 18 28  1  0  0  0  0
  9 38  1  0  0  0  0
M  CHG  2   6   1  16  -1
M  END
>  <Mol Weight>
566.6071

>  <Formula>
C31H30N6O5

>  <chembl_id>
CHEMBL162297

$$$$

  Mrv0541 06201412482D          

 44 49  0  0  0  0            999 V2000
   -0.0375    0.4713    0.0000 C   0  0  0  0  0  0  0  0  0  0  0  0
   -0.0375   -0.3546    0.0000 C   0  0  0  0  0  0  0  0  0  0  0  0
   -1.4640    0.4713    0.0000 N   0  0  0  0  0  0  0  0  0  0  0  0
    1.3931   -0.3546    0.0000 N   0  0  0  0  0  0  0  0  0  0  0  0
   -0.7508    0.8842    0.0000 C   0  0  0  0  0  0  0  0  0  0  0  0
    0.6757   -0.7675    0.0000 C   0  0  0  0  0  0  0  0  0  0  0  0
    1.3931    0.4713    0.0000 C   0  0  0  0  0  0  0  0  0  0  0  0
   -1.4640   -0.3546    0.0000 C   0  0  0  0  0  0  0  0  0  0  0  0
    0.6757    0.8842    0.0000 N   0  0  0  0  0  0  0  0  0  0  0  0
   -0.7508   -0.7675    0.0000 N   0  0  0  0  0  0  0  0  0  0  0  0
   -0.7508    1.7101    0.0000 N   0  0  0  0  0  0  0  0  0  0  0  0
    0.6757   -1.5933    0.0000 N   0  0  0  0  0  0  0  0  0  0  0  0
   -1.4640    2.1230    0.0000 C   0  0  0  0  0  0  0  0  0  0  0  0
    1.3931   -1.9938    0.0000 C   0  0  0  0  0  0  0  0  0  0  0  0
    2.1147    0.8842    0.0000 N   0  0  0  0  0  0  0  0  0  0  0  0
   -2.1898   -0.7758    0.0000 N   0  0  0  0  0  0  0  0  0  0  0  0
   -1.4598    2.9488    0.0000 C   0  0  0  0  0  0  0  0  0  0  0  0
    1.3889   -2.8279    0.0000 C   0  0  0  0  0  0  0  0  0  0  0  0
   -0.0375   -2.0021    0.0000 C   0  0  0  0  0  0  0  0  0  0  0  0
   -0.0250    2.1230    0.0000 C   0  0  0  0  0  0  0  0  0  0  0  0
   -0.7383    3.3618    0.0000 C   0  0  0  0  0  0  0  0  0  0  0  0
    0.6757   -3.2325    0.0000 C   0  0  0  0  0  0  0  0  0  0  0  0
   -0.0250    2.9405    0.0000 C   0  0  0  0  0  0  0  0  0  0  0  0
   -0.0375   -2.8196    0.0000 C   0  0  0  0  0  0  0  0  0  0  0  0
    3.5412   -0.7675    0.0000 O   0  0  0  0  0  0  0  0  0  0  0  0
    2.8321    2.9614    0.0000 O   0  0  0  0  0  0  0  0  0  0  0  0
   -1.4723   -2.8446    0.0000 O   0  0  0  0  0  0  0  0  0  0  0  0
   -4.3503   -0.3671    0.0000 O   0  0  0  0  0  0  0  0  0  0  0  0
   -2.1856   -1.5933    0.0000 C   0  0  0  0  0  0  0  0  0  0  0  0
   -2.9113   -0.3629    0.0000 C   0  0  0  0  0  0  0  0  0  0  0  0
    2.8279    0.4713    0.0000 C   0  0  0  0  0  0  0  0  0  0  0  0
    2.1189    1.7101    0.0000 C   0  0  0  0  0  0  0  0  0  0  0  0
   -2.1647    3.3618    0.0000 C   0  0  0  0  0  0  0  0  0  0  0  0
    2.1022   -3.2325    0.0000 C   0  0  0  0  0  0  0  0  0  0  0  0
   -0.7341    4.1710    0.0000 C   0  0  0  0  0  0  0  0  0  0  0  0
    0.6757   -4.0584    0.0000 C   0  0  0  0  0  0  0  0  0  0  0  0
   -1.4723   -2.0146    0.0000 C   0  0  0  0  0  0  0  0  0  0  0  0
   -3.6245   -0.7800    0.0000 C   0  0  0  0  0  0  0  0  0  0  0  0
    2.8279   -0.3546    0.0000 C   0  0  0  0  0  0  0  0  0  0  0  0
    2.8321    2.1230    0.0000 C   0  0  0  0  0  0  0  0  0  0  0  0
   -2.1647    4.1835    0.0000 C   0  0  0  0  0  0  0  0  0  0  0  0
    2.1022   -4.0584    0.0000 C   0  0  0  0  0  0  0  0  0  0  0  0
   -1.4473    4.5965    0.0000 C   0  0  0  0  0  0  0  0  0  0  0  0
    1.3889   -4.4713    0.0000 C   0  0  0  0  0  0  0  0  0  0  0  0
  2  1  1  0  0  0  0
  3  5  1  0  0  0  0
  4  7  1  0  0  0  0
  5  1  2  0  0  0  0
  6  2  1  0  0  0  0
  7  9  2  0  0  0  0
  8  3  2  0  0  0  0
  9  1  1  0  0  0  0
 10  2  2  0  0  0  0
 11  5  1  0  0  0  0
 12  6  1  0  0  0  0
 13 11  1  0  0  0  0
 14 12  1  0  0  0  0
 15  7  1  0  0  0  0
 16  8  1  0  0  0  0
 17 13  1  0  0  0  0
 18 14  1  0  0  0  0
 19 12  1  0  0  0  0
 20 11  1  0  0  0  0
 21 23  1  0  0  0  0
 22 24  1  0  0  0  0
 23 20  1  0  0  0  0
 24 19  1  0  0  0  0
 25 39  1  0  0  0  0
 26 40  1  0  0  0  0
 27 37  1  0  0  0  0
 28 38  1  0  0  0  0
 29 16  1  0  0  0  0
 30 16  1  0  0  0  0
 31 15  1  0  0  0  0
 32 15  1  0  0  0  0
 33 17  1  0  0  0  0
 34 18  1  0  0  0  0
 35 21  1  0  0  0  0
 36 22  1  0  0  0  0
 37 29  1  0  0  0  0
 38 30  1  0  0  0  0
 39 31  1  0  0  0  0
 40 32  1  0  0  0  0
 41 33  2  0  0  0  0
 42 34  2  0  0  0  0
 43 35  2  0  0  0  0
 44 36  2  0  0  0  0
 10  8  1  0  0  0  0
  6  4  2  0  0  0  0
 17 21  2  0  0  0  0
 18 22  2  0  0  0  0
 41 43  1  0  0  0  0
 42 44  1  0  0  0  0
M  END
>  <Mol Weight>
600.7112

>  <Formula>
C32H40N8O4

>  <chembl_id>
CHEMBL180716

$$$$

  Mrv0541 06201412482D          

 41 46  0  0  0  0            999 V2000
   21.4676  -16.0672    0.0000 C   0  0  0  0  0  0  0  0  0  0  0  0
   22.0507  -15.4799    0.0000 C   0  0  0  0  0  0  0  0  0  0  0  0
   21.4634  -14.8968    0.0000 C   0  0  0  0  0  0  0  0  0  0  0  0
   20.8803  -15.4841    0.0000 C   0  0  0  0  0  0  0  0  0  0  0  0
   18.6142  -17.7341    0.0000 C   0  0  0  0  0  0  0  0  0  0  0  0
   19.3304  -17.3210    0.0000 C   0  0  0  0  0  0  0  0  0  0  0  0
   19.3275  -16.4906    0.0000 C   0  0  0  0  0  0  0  0  0  0  0  0
   18.6124  -16.0817    0.0000 C   0  0  0  0  0  0  0  0  0  0  0  0
   17.8996  -17.3214    0.0000 C   0  0  0  0  0  0  0  0  0  0  0  0
   17.9009  -16.4927    0.0000 C   0  0  0  0  0  0  0  0  0  0  0  0
   17.1131  -16.2355    0.0000 N   0  0  0  0  0  0  0  0  0  0  0  0
   16.6250  -16.9052    0.0000 C   0  0  0  0  0  0  0  0  0  0  0  0
   17.1111  -17.5762    0.0000 N   0  0  0  0  0  0  0  0  0  0  0  0
   16.8553  -18.3619    0.0000 C   0  0  0  0  0  0  0  0  0  0  0  0
   16.0292  -18.3581    0.0000 C   0  0  0  0  0  0  0  0  0  0  0  0
   15.6149  -19.0671    0.0000 C   0  0  0  0  0  0  0  0  0  0  0  0
   16.0217  -19.7848    0.0000 C   0  0  0  0  0  0  0  0  0  0  0  0
   16.8474  -19.7892    0.0000 C   0  0  0  0  0  0  0  0  0  0  0  0
   17.2663  -19.0758    0.0000 C   0  0  0  0  0  0  0  0  0  0  0  0
   20.0402  -16.0756    0.0000 C   0  0  0  0  0  0  0  0  0  0  0  0
   20.7560  -16.4853    0.0000 N   0  0  0  0  0  0  0  0  0  0  0  0
   20.0370  -15.2509    0.0000 O   0  0  0  0  0  0  0  0  0  0  0  0
   22.1844  -16.4800    0.0000 C   0  0  0  0  0  0  0  0  0  0  0  0
   22.1854  -17.3047    0.0000 O   0  0  0  0  0  0  0  0  0  0  0  0
   22.8982  -16.0667    0.0000 N   0  0  0  0  0  0  0  0  0  0  0  0
   23.6128  -16.4783    0.0000 C   0  0  0  0  0  0  0  0  0  0  0  0
   23.6109  -17.3035    0.0000 C   0  0  0  0  0  0  0  0  0  0  0  0
   24.3248  -17.7149    0.0000 C   0  0  0  0  0  0  0  0  0  0  0  0
   25.0395  -17.3017    0.0000 C   0  0  0  0  0  0  0  0  0  0  0  0
   25.0359  -16.4727    0.0000 C   0  0  0  0  0  0  0  0  0  0  0  0
   24.3215  -16.0650    0.0000 C   0  0  0  0  0  0  0  0  0  0  0  0
   25.7548  -17.7122    0.0000 C   0  0  0  0  0  0  0  0  0  0  0  0
   26.4680  -17.2981    0.0000 C   0  0  0  0  0  0  0  0  0  0  0  0
   27.1833  -17.7086    0.0000 C   0  0  0  0  0  0  0  0  0  0  0  0
   27.1890  -18.5331    0.0000 O   0  0  0  0  0  0  0  0  0  0  0  0
   27.9001  -17.2944    0.0000 O   0  0  0  0  0  0  0  0  0  0  0  0
   15.8001  -16.9063    0.0000 C   0  0  0  0  0  0  0  0  0  0  0  0
   15.3163  -16.2384    0.0000 C   0  0  0  0  0  0  0  0  0  0  0  0
   14.5315  -16.4921    0.0000 C   0  0  0  0  0  0  0  0  0  0  0  0
   14.5303  -17.3169    0.0000 C   0  0  0  0  0  0  0  0  0  0  0  0
   15.3144  -17.5728    0.0000 S   0  0  0  0  0  0  0  0  0  0  0  0
  4  1  1  0  0  0  0
  7 20  1  0  0  0  0
 20 21  1  0  0  0  0
  9  5  1  0  0  0  0
 20 22  2  0  0  0  0
 21  1  1  0  0  0  0
  1  2  1  0  0  0  0
  1 23  1  0  0  0  0
  5  6  2  0  0  0  0
 23 24  2  0  0  0  0
 10 11  1  0  0  0  0
 23 25  1  0  0  0  0
 11 12  2  0  0  0  0
 25 26  1  0  0  0  0
 12 13  1  0  0  0  0
 26 27  2  0  0  0  0
 13  9  1  0  0  0  0
 27 28  1  0  0  0  0
 14 15  1  0  0  0  0
 28 29  2  0  0  0  0
  2  3  1  0  0  0  0
 29 30  1  0  0  0  0
  6  7  1  0  0  0  0
 30 31  2  0  0  0  0
 31 26  1  0  0  0  0
  3  4  1  0  0  0  0
 29 32  1  0  0  0  0
  7  8  2  0  0  0  0
 32 33  2  0  0  0  0
  8 10  1  0  0  0  0
 33 34  1  0  0  0  0
  9 10  2  0  0  0  0
 14 19  1  0  0  0  0
 34 35  1  0  0  0  0
 34 36  2  0  0  0  0
 37 38  2  0  0  0  0
 15 16  1  0  0  0  0
 16 17  1  0  0  0  0
 17 18  1  0  0  0  0
 18 19  1  0  0  0  0
 13 14  1  0  0  0  0
 38 39  1  0  0  0  0
 39 40  2  0  0  0  0
 40 41  1  0  0  0  0
 41 37  1  0  0  0  0
 12 37  1  0  0  0  0
M  END
>  <Mol Weight>
568.686

>  <Formula>
C32H32N4O4S

>  <chembl_id>
CHEMBL1077336

$$$$

  Mrv0541 06201412482D          

 46 51  0  0  0  0            999 V2000
   -7.0077   -5.8143    0.0000 C   0  0  0  0  0  0  0  0  0  0  0  0
   -7.4202   -5.0998    0.0000 C   0  0  0  0  0  0  0  0  0  0  0  0
   -8.2452   -5.0998    0.0000 C   0  0  0  0  0  0  0  0  0  0  0  0
   -8.6577   -5.8143    0.0000 C   0  0  0  0  0  0  0  0  0  0  0  0
   -8.2452   -6.5287    0.0000 C   0  0  0  0  0  0  0  0  0  0  0  0
   -7.4202   -6.5287    0.0000 C   0  0  0  0  0  0  0  0  0  0  0  0
   -7.0077   -4.3853    0.0000 C   0  0  0  0  0  0  0  0  0  0  0  0
   -6.1827   -4.3853    0.0000 C   0  0  2  0  0  0  0  0  0  0  0  0
   -5.7702   -5.0997    0.0000 C   0  0  1  0  0  0  0  0  0  0  0  0
   -6.1827   -5.8142    0.0000 C   0  0  2  0  0  0  0  0  0  0  0  0
   -4.9452   -5.0997    0.0000 C   0  0  0  0  0  0  0  0  0  0  0  0
   -4.5326   -5.8141    0.0000 C   0  0  0  0  0  0  0  0  0  0  0  0
   -4.9451   -6.5286    0.0000 C   0  0  2  0  0  0  0  0  0  0  0  0
   -5.7701   -6.5287    0.0000 C   0  0  2  0  0  0  0  0  0  0  0  0
   -6.7057   -6.9412    0.0000 O   0  0  0  0  0  0  0  0  0  0  0  0
   -5.7702   -3.6708    0.0000 N   0  0  0  0  0  0  0  0  0  0  0  0
   -6.7660   -5.2309    0.0000 C   0  0  0  0  0  0  0  0  0  0  0  0
   -6.5952   -3.6708    0.0000 C   0  0  0  0  0  0  0  0  0  0  0  0
   -5.3577   -4.3853    0.0000 O   0  0  0  0  0  0  0  0  0  0  0  0
   -8.6577   -7.2432    0.0000 O   0  0  0  0  0  0  0  0  0  0  0  0
   -4.3931   -7.1417    0.0000 N   0  0  0  0  0  0  0  0  0  0  0  0
   -5.1868   -3.0874    0.0000 C   0  0  0  0  0  0  0  0  0  0  0  0
   -5.4004   -2.2905    0.0000 C   0  0  0  0  0  0  0  0  0  0  0  0
   -5.1869   -1.4937    0.0000 C   0  0  0  0  0  0  0  0  0  0  0  0
   -5.9837   -1.7072    0.0000 C   0  0  0  0  0  0  0  0  0  0  0  0
   -3.5861   -6.9702    0.0000 C   0  0  0  0  0  0  0  0  0  0  0  0
   -3.0341   -7.5833    0.0000 C   0  0  0  0  0  0  0  0  0  0  0  0
   -3.3726   -6.1733    0.0000 O   0  0  0  0  0  0  0  0  0  0  0  0
   -2.2271   -7.4118    0.0000 C   0  0  0  0  0  0  0  0  0  0  0  0
   -1.6751   -8.0249    0.0000 C   0  0  0  0  0  0  0  0  0  0  0  0
   -0.8681   -7.8534    0.0000 C   0  0  0  0  0  0  0  0  0  0  0  0
   -0.3161   -8.4665    0.0000 C   0  0  0  0  0  0  0  0  0  0  0  0
    0.4908   -8.2950    0.0000 C   0  0  0  0  0  0  0  0  0  0  0  0
    1.0429   -8.9082    0.0000 C   0  0  0  0  0  0  0  0  0  0  0  0
    1.8397   -8.6946    0.0000 C   0  0  0  0  0  0  0  0  0  0  0  0
    2.4231   -9.2780    0.0000 C   0  0  0  0  0  0  0  0  0  0  0  0
    3.2200   -9.0645    0.0000 C   0  0  0  0  0  0  0  0  0  0  0  0
    3.8034   -9.6478    0.0000 C   0  0  0  0  0  0  0  0  0  0  0  0
    4.6003   -9.4343    0.0000 C   0  0  0  0  0  0  0  0  0  0  0  0
    5.1836  -10.0177    0.0000 C   0  0  0  0  0  0  0  0  0  0  0  0
    5.9805   -9.8041    0.0000 C   0  0  0  0  0  0  0  0  0  0  0  0
    6.5639  -10.3875    0.0000 C   0  0  0  0  0  0  0  0  0  0  0  0
    7.3608  -10.1740    0.0000 C   0  0  0  0  0  0  0  0  0  0  0  0
    7.9441  -10.7573    0.0000 C   0  0  0  0  0  0  0  0  0  0  0  0
   -5.5639   -7.5072    0.0000 H   0  0  0  0  0  0  0  0  0  0  0  0
   -6.6827   -3.5193    0.0000 H   0  0  0  0  0  0  0  0  0  0  0  0
  2  3  2  0  0  0  0
  3  4  1  0  0  0  0
  4  5  2  0  0  0  0
  5  6  1  0  0  0  0
  6  1  2  0  0  0  0
  2  7  1  0  0  0  0
  1  2  1  0  0  0  0
 10  1  1  0  0  0  0
  7  8  1  0  0  0  0
  8  9  1  0  0  0  0
  9 11  1  0  0  0  0
 10  9  1  0  0  0  0
 14 10  1  0  0  0  0
 11 12  1  0  0  0  0
 13 14  1  0  0  0  0
  6 15  1  0  0  0  0
 14 15  1  0  0  0  0
  8 16  1  0  0  0  0
 10 17  1  1  0  0  0
 16 18  1  0  0  0  0
 18 17  1  0  0  0  0
  9 19  1  1  0  0  0
  5 20  1  0  0  0  0
 12 13  1  0  0  0  0
 13 21  1  1  0  0  0
 16 22  1  0  0  0  0
 22 23  1  0  0  0  0
 23 24  1  0  0  0  0
 25 23  1  0  0  0  0
 24 25  1  0  0  0  0
 21 26  1  0  0  0  0
 26 27  1  0  0  0  0
 26 28  2  0  0  0  0
 27 29  1  0  0  0  0
 29 30  1  0  0  0  0
 30 31  1  0  0  0  0
 31 32  1  0  0  0  0
 32 33  1  0  0  0  0
 33 34  1  0  0  0  0
 34 35  1  0  0  0  0
 35 36  2  0  0  0  0
 36 37  1  0  0  0  0
 37 38  1  0  0  0  0
 38 39  2  0  0  0  0
 39 40  1  0  0  0  0
 40 41  1  0  0  0  0
 41 42  1  0  0  0  0
 42 43  1  0  0  0  0
 43 44  1  0  0  0  0
 14 45  1  1  0  0  0
  8 46  1  6  0  0  0
M  END
>  <Mol Weight>
604.8622

>  <Formula>
C38H56N2O4

>  <chembl_id>
CHEMBL610272

$$$$

  Mrv0541 06201412482D          

 43 47  0  0  0  0            999 V2000
    4.9793  -12.7805    0.0000 C   0  0  0  0  0  0  0  0  0  0  0  0
    4.9813  -13.6041    0.0000 O   0  0  0  0  0  0  0  0  0  0  0  0
    5.6955  -14.0142    0.0000 C   0  0  0  0  0  0  0  0  0  0  0  0
    6.4146  -13.5999    0.0000 C   0  0  0  0  0  0  0  0  0  0  0  0
    7.1324  -14.0134    0.0000 C   0  0  0  0  0  0  0  0  0  0  0  0
    7.1309  -14.8409    0.0000 C   0  0  0  0  0  0  0  0  0  0  0  0
    6.4180  -15.2535    0.0000 C   0  0  0  0  0  0  0  0  0  0  0  0
    6.4150  -16.0785    0.0000 C   0  0  0  0  0  0  0  0  0  0  0  0
    5.7024  -16.4923    0.0000 C   0  0  0  0  0  0  0  0  0  0  0  0
    4.9852  -16.0780    0.0000 C   0  0  0  0  0  0  0  0  0  0  0  0
    4.9806  -15.2498    0.0000 C   0  0  0  0  0  0  0  0  0  0  0  0
    5.7003  -14.8401    0.0000 C   0  0  0  0  0  0  0  0  0  0  0  0
    6.4146  -12.7763    0.0000 C   0  0  0  0  0  0  0  0  0  0  0  0
    5.7002  -12.3666    0.0000 C   0  0  0  0  0  0  0  0  0  0  0  0
    5.7002  -11.5387    0.0000 C   0  0  0  0  0  0  0  0  0  0  0  0
    6.4146  -11.1206    0.0000 N   0  0  0  0  0  0  0  0  0  0  0  0
    6.4146  -10.2970    0.0000 C   0  0  0  0  0  0  0  0  0  0  0  0
    5.7014   -9.8852    0.0000 C   0  0  0  0  0  0  0  0  0  0  0  0
    5.7014   -9.0616    0.0000 C   0  0  0  0  0  0  0  0  0  0  0  0
    4.9882   -8.6498    0.0000 C   0  0  0  0  0  0  0  0  0  0  0  0
    4.9882   -7.8262    0.0000 N   0  0  0  0  0  0  0  0  0  0  0  0
    4.2749   -7.4144    0.0000 C   0  0  0  0  0  0  0  0  0  0  0  0
    3.5616   -7.8262    0.0000 O   0  0  0  0  0  0  0  0  0  0  0  0
    4.2749   -6.5908    0.0000 C   0  0  0  0  0  0  0  0  0  0  0  0
    4.9931   -6.1790    0.0000 C   0  0  0  0  0  0  0  0  0  0  0  0
    4.9931   -5.3554    0.0000 C   0  0  0  0  0  0  0  0  0  0  0  0
    4.2823   -4.9394    0.0000 C   0  0  0  0  0  0  0  0  0  0  0  0
    4.2859   -4.1158    0.0000 C   0  0  0  0  0  0  0  0  0  0  0  0
    3.5695   -3.7008    0.0000 C   0  0  0  0  0  0  0  0  0  0  0  0
    3.5731   -2.8772    0.0000 C   0  0  0  0  0  0  0  0  0  0  0  0
    4.2858   -2.4644    0.0000 C   0  0  0  0  0  0  0  0  0  0  0  0
    4.2858   -1.6408    0.0000 Cl  0  0  0  0  0  0  0  0  0  0  0  0
    5.0022   -2.8794    0.0000 C   0  0  0  0  0  0  0  0  0  0  0  0
    5.0058   -3.7072    0.0000 C   0  0  0  0  0  0  0  0  0  0  0  0
    3.5641   -5.3512    0.0000 C   0  0  0  0  0  0  0  0  0  0  0  0
    2.8533   -4.9352    0.0000 O   0  0  0  0  0  0  0  0  0  0  0  0
    2.1376   -5.3428    0.0000 C   0  0  0  0  0  0  0  0  0  0  0  0
    1.4268   -4.9268    0.0000 C   0  0  0  0  0  0  0  0  0  0  0  0
    0.7111   -5.3344    0.0000 N   0  0  0  0  0  0  0  0  0  0  0  0
    1.4317   -4.1032    0.0000 O   0  0  0  0  0  0  0  0  0  0  0  0
    3.5568   -6.1790    0.0000 C   0  0  0  0  0  0  0  0  0  0  0  0
    7.1291  -11.5387    0.0000 C   0  0  0  0  0  0  0  0  0  0  0  0
    7.1291  -12.3666    0.0000 C   0  0  0  0  0  0  0  0  0  0  0  0
  1  2  1  0  0  0  0
  2  3  1  0  0  0  0
  3 12  2  0  0  0  0
  3  4  1  0  0  0  0
  4  5  2  0  0  0  0
  5  6  1  0  0  0  0
  6  7  2  0  0  0  0
  7 12  1  0  0  0  0
  7  8  1  0  0  0  0
  8  9  1  0  0  0  0
  9 10  1  0  0  0  0
 10 11  1  0  0  0  0
 11 12  1  0  0  0  0
  4 13  1  0  0  0  0
 13 43  1  0  0  0  0
 13 14  1  0  0  0  0
 14 15  1  0  0  0  0
 15 16  1  0  0  0  0
 16 17  1  0  0  0  0
 17 18  1  0  0  0  0
 18 19  1  0  0  0  0
 19 20  1  0  0  0  0
 20 21  1  0  0  0  0
 21 22  1  0  0  0  0
 22 23  2  0  0  0  0
 22 24  1  0  0  0  0
 24 41  2  0  0  0  0
 24 25  1  0  0  0  0
 25 26  2  0  0  0  0
 26 27  1  0  0  0  0
 27 28  1  0  0  0  0
 28 34  2  0  0  0  0
 28 29  1  0  0  0  0
 29 30  2  0  0  0  0
 30 31  1  0  0  0  0
 31 32  1  0  0  0  0
 31 33  2  0  0  0  0
 33 34  1  0  0  0  0
 27 35  2  0  0  0  0
 35 36  1  0  0  0  0
 36 37  1  0  0  0  0
 37 38  1  0  0  0  0
 38 39  1  0  0  0  0
 38 40  2  0  0  0  0
 35 41  1  0  0  0  0
 16 42  1  0  0  0  0
 42 43  1  0  0  0  0
M  END
>  <Mol Weight>
604.179

>  <Formula>
C35H42ClN3O4

>  <chembl_id>
CHEMBL530034

$$$$

  Mrv0541 06201412482D          

 44 49  0  0  1  0            999 V2000
    1.4618   -1.2744    0.0000 C   0  0  0  0  0  0  0  0  0  0  0  0
    1.4618   -2.0990    0.0000 N   0  0  0  0  0  0  0  0  0  0  0  0
    2.1781   -0.8621    0.0000 C   0  0  2  0  0  0  0  0  0  0  0  0
    3.6024   -0.8621    0.0000 C   0  0  0  0  0  0  0  0  0  0  0  0
    2.8903   -1.2744    0.0000 N   0  0  0  0  0  0  0  0  0  0  0  0
    1.4618   -3.7482    0.0000 N   0  0  0  0  0  0  0  0  0  0  0  0
    4.3146   -2.0990    0.0000 N   0  0  0  0  0  0  0  0  0  0  0  0
    4.3146   -1.2744    0.0000 C   0  0  2  0  0  0  0  0  0  0  0  0
    1.4618   -4.5645    0.0000 C   0  0  0  0  0  0  0  0  0  0  0  0
    5.0267   -0.8538    0.0000 C   0  0  0  0  0  0  0  0  0  0  0  0
    5.7389   -1.2744    0.0000 C   0  0  0  0  0  0  0  0  0  0  0  0
    2.1781   -0.0292    0.0000 C   0  0  0  0  0  0  0  0  0  0  0  0
    5.0267   -2.5030    0.0000 C   0  0  0  0  0  0  0  0  0  0  0  0
    0.7538   -2.5155    0.0000 C   0  0  0  0  0  0  0  0  0  0  0  0
    2.1739   -2.5155    0.0000 C   0  0  0  0  0  0  0  0  0  0  0  0
    2.1739   -3.3401    0.0000 C   0  0  0  0  0  0  0  0  0  0  0  0
    0.7538   -3.3401    0.0000 C   0  0  0  0  0  0  0  0  0  0  0  0
    0.7496   -0.8621    0.0000 O   0  0  0  0  0  0  0  0  0  0  0  0
    2.1739   -4.9768    0.0000 C   0  0  0  0  0  0  0  0  0  0  0  0
    3.6024   -0.0292    0.0000 O   0  0  0  0  0  0  0  0  0  0  0  0
    5.7347   -2.1032    0.0000 C   0  0  0  0  0  0  0  0  0  0  0  0
    2.8861   -4.5645    0.0000 O   0  0  0  0  0  0  0  0  0  0  0  0
    1.4618    0.3748    0.0000 C   0  0  0  0  0  0  0  0  0  0  0  0
    3.6024   -4.9768    0.0000 C   0  0  0  0  0  0  0  0  0  0  0  0
    0.0375    1.2077    0.0000 C   0  0  0  0  0  0  0  0  0  0  0  0
   -0.6830    1.6200    0.0000 Cl  0  0  0  0  0  0  0  0  0  0  0  0
    1.4660    1.2077    0.0000 C   0  0  0  0  0  0  0  0  0  0  0  0
    0.7538   -0.0292    0.0000 C   0  0  0  0  0  0  0  0  0  0  0  0
    0.0417    0.3831    0.0000 C   0  0  0  0  0  0  0  0  0  0  0  0
    0.7538    1.6200    0.0000 C   0  0  0  0  0  0  0  0  0  0  0  0
    4.3146   -4.5603    0.0000 C   0  0  0  0  0  0  0  0  0  0  0  0
    0.7413   -4.9768    0.0000 C   0  0  0  0  0  0  0  0  0  0  0  0
    6.4593   -0.8621    0.0000 C   0  0  0  0  0  0  0  0  0  0  0  0
    6.4468   -2.5238    0.0000 C   0  0  0  0  0  0  0  0  0  0  0  0
    2.1781   -5.8013    0.0000 C   0  0  0  0  0  0  0  0  0  0  0  0
    5.0267   -4.9726    0.0000 C   0  0  0  0  0  0  0  0  0  0  0  0
    4.3104   -3.7399    0.0000 C   0  0  0  0  0  0  0  0  0  0  0  0
    0.7413   -5.8013    0.0000 C   0  0  0  0  0  0  0  0  0  0  0  0
    7.1757   -1.2869    0.0000 C   0  0  0  0  0  0  0  0  0  0  0  0
    7.1715   -2.1157    0.0000 C   0  0  0  0  0  0  0  0  0  0  0  0
    1.4618   -6.2136    0.0000 C   0  0  0  0  0  0  0  0  0  0  0  0
    5.0142   -3.3234    0.0000 C   0  0  0  0  0  0  0  0  0  0  0  0
    5.7389   -4.5603    0.0000 C   0  0  0  0  0  0  0  0  0  0  0  0
    5.7389   -3.7274    0.0000 C   0  0  0  0  0  0  0  0  0  0  0  0
  2  1  1  0  0  0  0
  3  1  1  0  0  0  0
  4  5  1  0  0  0  0
  3  5  1  1  0  0  0
  6 16  1  0  0  0  0
  8  7  1  0  0  0  0
  8  4  1  1  0  0  0
  9  6  1  0  0  0  0
 10  8  1  0  0  0  0
 11 10  1  0  0  0  0
  3 12  1  0  0  0  0
 13  7  1  0  0  0  0
 14  2  1  0  0  0  0
 15  2  1  0  0  0  0
 16 15  1  0  0  0  0
 17 14  1  0  0  0  0
 18  1  2  0  0  0  0
 19  9  1  0  0  0  0
 20  4  2  0  0  0  0
 21 11  1  0  0  0  0
 22 19  1  0  0  0  0
 23 12  1  0  0  0  0
 24 22  1  0  0  0  0
 25 29  1  0  0  0  0
 26 25  1  0  0  0  0
 27 23  2  0  0  0  0
 28 23  1  0  0  0  0
 29 28  2  0  0  0  0
 30 27  1  0  0  0  0
 31 24  1  0  0  0  0
 32  9  2  0  0  0  0
 33 11  2  0  0  0  0
 34 21  2  0  0  0  0
 35 19  2  0  0  0  0
 36 31  2  0  0  0  0
 37 31  1  0  0  0  0
 38 32  1  0  0  0  0
 39 33  1  0  0  0  0
 40 39  2  0  0  0  0
 41 38  2  0  0  0  0
 42 37  2  0  0  0  0
 43 36  1  0  0  0  0
 44 42  1  0  0  0  0
 17  6  1  0  0  0  0
 30 25  2  0  0  0  0
 21 13  1  0  0  0  0
 41 35  1  0  0  0  0
 34 40  1  0  0  0  0
 43 44  2  0  0  0  0
M  END
>  <Mol Weight>
609.157

>  <Formula>
C36H37ClN4O3

>  <chembl_id>
CHEMBL162493

$$$$

  Mrv0541 06201412482D          

 41 46  0  0  0  0            999 V2000
    7.8674   -8.9271    0.0000 C   0  0  0  0  0  0  0  0  0  0  0  0
    7.1502   -9.3379    0.0000 C   0  0  0  0  0  0  0  0  0  0  0  0
    7.1502  -10.1639    0.0000 C   0  0  0  0  0  0  0  0  0  0  0  0
    7.8674  -10.5747    0.0000 C   0  0  0  0  0  0  0  0  0  0  0  0
    8.5805  -10.1639    0.0000 C   0  0  0  0  0  0  0  0  0  0  0  0
    8.5805   -9.3379    0.0000 C   0  0  0  0  0  0  0  0  0  0  0  0
    6.4372   -8.9271    0.0000 C   0  0  0  0  0  0  0  0  0  0  0  0
    6.4372   -8.1012    0.0000 C   0  0  0  0  0  0  0  0  0  0  0  0
    5.0111   -8.9271    0.0000 N   0  0  0  0  0  0  0  0  0  0  0  0
    5.7241   -9.3379    0.0000 C   0  0  0  0  0  0  0  0  0  0  0  0
    5.0111   -8.1012    0.0000 C   0  0  0  0  0  0  0  0  0  0  0  0
    5.7241   -7.6904    0.0000 N   0  0  0  0  0  0  0  0  0  0  0  0
    5.5525   -6.8834    0.0000 N   0  0  0  0  0  0  0  0  0  0  0  0
    4.7333   -6.7947    0.0000 C   0  0  0  0  0  0  0  0  0  0  0  0
    4.3972   -7.5503    0.0000 C   0  0  0  0  0  0  0  0  0  0  0  0
    3.5902   -7.7221    0.0000 C   0  0  0  0  0  0  0  0  0  0  0  0
    3.0393   -7.1080    0.0000 C   0  0  0  0  0  0  0  0  0  0  0  0
    2.2323   -7.2797    0.0000 C   0  0  0  0  0  0  0  0  0  0  0  0
    1.9762   -8.0613    0.0000 C   0  0  0  0  0  0  0  0  0  0  0  0
    2.5271   -8.6753    0.0000 C   0  0  0  0  0  0  0  0  0  0  0  0
    3.3341   -8.5036    0.0000 C   0  0  0  0  0  0  0  0  0  0  0  0
   10.7231   -8.9307    0.0000 C   0  0  0  0  0  0  0  0  0  0  0  0
   10.7231   -9.7524    0.0000 C   0  0  0  0  0  0  0  0  0  0  0  0
   11.4403  -10.1675    0.0000 C   0  0  0  0  0  0  0  0  0  0  0  0
   12.1533   -9.7524    0.0000 C   0  0  0  0  0  0  0  0  0  0  0  0
   12.1533   -8.9307    0.0000 C   0  0  0  0  0  0  0  0  0  0  0  0
   11.4403   -8.5157    0.0000 C   0  0  0  0  0  0  0  0  0  0  0  0
   11.4403  -10.9892    0.0000 Cl  0  0  0  0  0  0  0  0  0  0  0  0
   12.8663  -10.1675    0.0000 Cl  0  0  0  0  0  0  0  0  0  0  0  0
   10.0100  -10.1675    0.0000 S   0  0  0  0  0  0  0  0  0  0  0  0
    9.5992   -9.4544    0.0000 O   0  0  0  0  0  0  0  0  0  0  0  0
   10.4251  -10.8805    0.0000 O   0  0  0  0  0  0  0  0  0  0  0  0
    2.2751   -9.4610    0.0000 N   0  0  0  0  0  0  0  0  0  0  0  0
    1.4682   -9.6327    0.0000 C   0  0  0  0  0  0  0  0  0  0  0  0
    1.2120  -10.4143    0.0000 C   0  0  0  0  0  0  0  0  0  0  0  0
    2.5699  -10.8565    0.0000 C   0  0  0  0  0  0  0  0  0  0  0  0
    2.8260  -10.0708    0.0000 C   0  0  0  0  0  0  0  0  0  0  0  0
    1.5093  -11.8133    0.0000 C   0  0  0  0  0  0  0  0  0  0  0  0
    7.1461   -7.6904    0.0000 N   0  0  0  0  0  0  0  0  0  0  0  0
    9.2942  -10.5776    0.0000 N   0  0  0  0  0  0  0  0  0  0  0  0
    1.7630  -11.0283    0.0000 N   0  0  0  0  0  0  0  0  0  0  0  0
  4  5  1  0  0  0  0
  5  6  2  0  0  0  0
  6  1  1  0  0  0  0
  2  7  1  0  0  0  0
  7  8  2  0  0  0  0
  8 12  1  0  0  0  0
 11  9  1  0  0  0  0
  9 10  2  0  0  0  0
 10  7  1  0  0  0  0
 11 12  1  0  0  0  0
 12 13  1  0  0  0  0
 13 14  2  0  0  0  0
 14 15  1  0  0  0  0
 15 11  2  0  0  0  0
 15 16  1  0  0  0  0
 16 17  2  0  0  0  0
 17 18  1  0  0  0  0
 18 19  2  0  0  0  0
 19 20  1  0  0  0  0
 20 21  2  0  0  0  0
 21 16  1  0  0  0  0
 22 23  2  0  0  0  0
 23 24  1  0  0  0  0
 24 25  2  0  0  0  0
 25 26  1  0  0  0  0
 26 27  2  0  0  0  0
 27 22  1  0  0  0  0
 24 28  1  0  0  0  0
 25 29  1  0  0  0  0
 23 30  1  0  0  0  0
 30 31  2  0  0  0  0
 30 32  2  0  0  0  0
 20 33  1  0  0  0  0
 33 34  1  0  0  0  0
 33 37  1  0  0  0  0
 34 35  1  0  0  0  0
 36 37  1  0  0  0  0
  1  2  2  0  0  0  0
  2  3  1  0  0  0  0
  3  4  2  0  0  0  0
  5 40  1  0  0  0  0
 30 40  1  0  0  0  0
  8 39  1  0  0  0  0
 35 41  1  0  0  0  0
 41 36  1  0  0  0  0
 41 38  1  0  0  0  0
M  END
>  <Mol Weight>
608.541

>  <Formula>
C29H27Cl2N7O2S

>  <chembl_id>
CHEMBL1084974

$$$$

  Mrv0541 06201412482D          

 43 49  0  0  0  0            999 V2000
   11.7627    1.5841    0.0000 C   0  0  1  0  0  0  0  0  0  0  0  0
   10.6912    2.3806    0.0000 N   0  0  0  0  0  0  0  0  0  0  0  0
   10.9376    1.5932    0.0000 C   0  0  0  0  0  0  0  0  0  0  0  0
   11.7579    0.7589    0.0000 C   0  0  1  0  0  0  0  0  0  0  0  0
   12.5434    0.4989    0.0000 C   0  0  1  0  0  0  0  0  0  0  0  0
   10.3324    0.7533    0.0000 N   0  0  0  0  0  0  0  0  0  0  0  0
   10.3357   -0.0718    0.0000 C   0  0  0  0  0  0  0  0  0  0  0  0
   11.0495   -0.4774    0.0000 C   0  0  0  0  0  0  0  0  0  0  0  0
   11.7599   -0.0661    0.0000 C   0  0  0  0  0  0  0  0  0  0  0  0
   11.0428    1.1728    0.0000 C   0  0  0  0  0  0  0  0  0  0  0  0
   11.0528   -1.3025    0.0000 C   0  0  0  0  0  0  0  0  0  0  0  0
   10.3399   -1.7178    0.0000 C   0  0  0  0  0  0  0  0  0  0  0  0
    9.6229   -1.3074    0.0000 C   0  0  0  0  0  0  0  0  0  0  0  0
    8.9106   -1.7221    0.0000 C   0  0  0  0  0  0  0  0  0  0  0  0
    8.9135   -2.5481    0.0000 C   0  0  0  0  0  0  0  0  0  0  0  0
    9.6347   -2.9575    0.0000 C   0  0  0  0  0  0  0  0  0  0  0  0
   10.3441   -2.5405    0.0000 C   0  0  0  0  0  0  0  0  0  0  0  0
    9.6149    1.1608    0.0000 C   0  0  0  0  0  0  0  0  0  0  0  0
   12.5519    1.8332    0.0000 N   0  0  0  0  0  0  0  0  0  0  0  0
   13.0305    1.1627    0.0000 C   0  0  1  0  0  0  0  0  0  0  0  0
   13.8161    1.4108    0.0000 C   0  0  0  0  0  0  0  0  0  0  0  0
   13.8230    2.2347    0.0000 S   0  0  0  0  0  0  0  0  0  0  0  0
   13.0416    2.4956    0.0000 C   0  0  0  0  0  0  0  0  0  0  0  0
   11.3640    2.8583    0.0000 C   0  0  0  0  0  0  0  0  0  0  0  0
   12.0235    2.3648    0.0000 C   0  0  0  0  0  0  0  0  0  0  0  0
   12.7785    2.6893    0.0000 C   0  0  0  0  0  0  0  0  0  0  0  0
   12.8752    3.5070    0.0000 C   0  0  0  0  0  0  0  0  0  0  0  0
   12.2108    3.9993    0.0000 C   0  0  0  0  0  0  0  0  0  0  0  0
   11.4585    3.6720    0.0000 C   0  0  0  0  0  0  0  0  0  0  0  0
   10.1095    1.6002    0.0000 O   0  0  0  0  0  0  0  0  0  0  0  0
   13.4349    0.4543    0.0000 H   0  0  0  0  0  0  0  0  0  0  0  0
   12.9484   -0.2200    0.0000 C   0  0  0  0  0  0  0  0  0  0  0  0
   12.5258   -0.9253    0.0000 C   0  0  0  0  0  0  0  0  0  0  0  0
   12.9301   -1.6436    0.0000 C   0  0  0  0  0  0  0  0  0  0  0  0
   13.7561   -1.6527    0.0000 C   0  0  0  0  0  0  0  0  0  0  0  0
   14.1760   -0.9375    0.0000 C   0  0  0  0  0  0  0  0  0  0  0  0
   13.7692   -0.2221    0.0000 C   0  0  0  0  0  0  0  0  0  0  0  0
   12.4753   -0.4774    0.0000 O   0  0  0  0  0  0  0  0  0  0  0  0
   14.1851    0.4906    0.0000 C   0  0  0  0  0  0  0  0  0  0  0  0
   11.0614   -2.9483    0.0000 C   0  0  0  0  0  0  0  0  0  0  0  0
   13.6324    3.8364    0.0000 N   0  3  0  0  0  0  0  0  0  0  0  0
   13.7292    4.6558    0.0000 O   0  0  0  0  0  0  0  0  0  0  0  0
   14.2993    3.3422    0.0000 O   0  5  0  0  0  0  0  0  0  0  0  0
  4  5  1  0  0  0  0
  1 25  1  1  0  0  0
  6 10  1  0  0  0  0
  7  8  1  0  0  0  0
  8  9  1  0  0  0  0
 20 21  1  0  0  0  0
 21 22  1  0  0  0  0
 22 23  1  0  0  0  0
 23 19  1  0  0  0  0
  4  9  1  1  0  0  0
  4 10  1  0  0  0  0
 24 25  2  0  0  0  0
 25 26  1  0  0  0  0
  8 11  2  0  0  0  0
 26 27  2  0  0  0  0
  5 20  1  0  0  0  0
 27 28  1  0  0  0  0
 11 12  1  0  0  0  0
 28 29  2  0  0  0  0
 29 24  1  0  0  0  0
 19  1  1  0  0  0  0
  3 30  2  0  0  0  0
 12 13  2  0  0  0  0
 20 31  1  6  0  0  0
  1  4  1  0  0  0  0
  5 32  1  1  0  0  0
 13 14  1  0  0  0  0
 32 33  2  0  0  0  0
  6  7  1  0  0  0  0
 33 34  1  0  0  0  0
 14 15  2  0  0  0  0
 34 35  2  0  0  0  0
 24  2  1  0  0  0  0
 35 36  1  0  0  0  0
 15 16  1  0  0  0  0
 36 37  2  0  0  0  0
 37 32  1  0  0  0  0
  2  3  1  0  0  0  0
  9 38  2  0  0  0  0
 16 17  2  0  0  0  0
 37 39  1  0  0  0  0
 17 12  1  0  0  0  0
 17 40  1  0  0  0  0
  1  3  1  0  0  0  0
  6 18  1  0  0  0  0
 19 20  1  0  0  0  0
 41 42  2  0  0  0  0
 41 43  1  0  0  0  0
 27 41  1  0  0  0  0
M  CHG  2  41   1  43  -1
M  END
>  <Mol Weight>
580.697

>  <Formula>
C33H32N4O4S

>  <chembl_id>
CHEMBL610760

$$$$

  Mrv0541 06201412482D          

 41 45  0  0  0  0            999 V2000
    2.0375   -9.6542    0.0000 C   0  0  0  0  0  0  0  0  0  0  0  0
   -0.1247  -11.7065    0.0000 C   0  0  1  0  0  0  0  0  0  0  0  0
    2.7500   -9.2333    0.0000 C   0  0  0  0  0  0  0  0  0  0  0  0
   -0.8447  -12.1093    0.0000 C   0  0  1  0  0  0  0  0  0  0  0  0
    3.4708  -10.4792    0.0000 C   0  0  0  0  0  0  0  0  0  0  0  0
    3.4708   -9.6458    0.0000 C   0  0  0  0  0  0  0  0  0  0  0  0
    2.0375  -10.4792    0.0000 C   0  0  0  0  0  0  0  0  0  0  0  0
   -0.8568  -12.9325    0.0000 C   0  0  2  0  0  0  0  0  0  0  0  0
    2.7500  -10.8917    0.0000 O   0  0  0  0  0  0  0  0  0  0  0  0
    0.5832  -12.1270    0.0000 O   0  0  0  0  0  0  0  0  0  0  0  0
   -0.1490  -13.3529    0.0000 C   0  0  1  0  0  0  0  0  0  0  0  0
    1.3208   -9.2333    0.0000 C   0  0  0  0  0  0  0  0  0  0  0  0
    0.5710  -12.9502    0.0000 C   0  0  1  0  0  0  0  0  0  0  0  0
    0.6083  -10.4792    0.0000 C   0  0  0  0  0  0  0  0  0  0  0  0
    4.1833  -10.8917    0.0000 C   0  0  0  0  0  0  0  0  0  0  0  0
    1.3208  -10.8917    0.0000 C   0  0  0  0  0  0  0  0  0  0  0  0
   -0.1125  -10.8833    0.0000 O   0  0  0  0  0  0  0  0  0  0  0  0
    0.6083   -9.6458    0.0000 C   0  0  0  0  0  0  0  0  0  0  0  0
    4.1833  -11.7083    0.0000 C   0  0  0  0  0  0  0  0  0  0  0  0
    4.8958  -12.1208    0.0000 C   0  0  0  0  0  0  0  0  0  0  0  0
    2.7458   -8.4083    0.0000 O   0  0  0  0  0  0  0  0  0  0  0  0
    5.6125  -11.7083    0.0000 C   0  0  0  0  0  0  0  0  0  0  0  0
    4.8958  -10.4708    0.0000 C   0  0  0  0  0  0  0  0  0  0  0  0
    5.6125  -10.8833    0.0000 C   0  0  0  0  0  0  0  0  0  0  0  0
   -1.5525  -11.6889    0.0000 O   0  0  0  0  0  0  0  0  0  0  0  0
   -1.5768  -13.3353    0.0000 O   0  0  0  0  0  0  0  0  0  0  0  0
   -0.1612  -14.1761    0.0000 O   0  0  0  0  0  0  0  0  0  0  0  0
    1.3208   -8.4083    0.0000 O   0  0  0  0  0  0  0  0  0  0  0  0
    1.2789  -13.3706    0.0000 C   0  0  0  0  0  0  0  0  0  0  0  0
    6.3250  -12.1208    0.0000 O   0  0  0  0  0  0  0  0  0  0  0  0
    1.9989  -12.9679    0.0000 O   0  0  0  0  0  0  0  0  0  0  0  0
   -2.2720  -12.0925    0.0000 C   0  0  2  0  0  0  0  0  0  0  0  0
   -2.3722  -12.9127    0.0000 O   0  0  0  0  0  0  0  0  0  0  0  0
   -3.1813  -13.0742    0.0000 C   0  0  0  0  0  0  0  0  0  0  0  0
   -3.5849  -12.3546    0.0000 C   0  0  2  0  0  0  0  0  0  0  0  0
   -3.0253  -11.7485    0.0000 C   0  0  2  0  0  0  0  0  0  0  0  0
   -4.4125  -12.3583    0.0000 C   0  0  0  0  0  0  0  0  0  0  0  0
   -3.8042  -11.5625    0.0000 O   0  0  0  0  0  0  0  0  0  0  0  0
   -4.8218  -13.0747    0.0000 O   0  0  0  0  0  0  0  0  0  0  0  0
   -3.1879  -10.9397    0.0000 O   0  0  0  0  0  0  0  0  0  0  0  0
   -2.2792  -11.2708    0.0000 H   0  0  0  0  0  0  0  0  0  0  0  0
 11 13  1  0  0  0  0
 12  1  2  0  0  0  0
 13 10  1  0  0  0  0
 14 18  2  0  0  0  0
  5 15  1  0  0  0  0
 16  7  2  0  0  0  0
 17 14  1  0  0  0  0
 18 12  1  0  0  0  0
 19 15  1  0  0  0  0
 20 19  2  0  0  0  0
 21  3  2  0  0  0  0
 22 24  2  0  0  0  0
 23 15  2  0  0  0  0
 24 23  1  0  0  0  0
  4 25  1  1  0  0  0
  8 26  1  6  0  0  0
 11 27  1  1  0  0  0
 28 12  1  0  0  0  0
 13 29  1  6  0  0  0
 30 22  1  0  0  0  0
 31 29  1  0  0  0  0
 16 14  1  0  0  0  0
  6  5  2  0  0  0  0
 20 22  1  0  0  0  0
  8 11  1  0  0  0  0
 25 32  1  0  0  0  0
 32 33  1  0  0  0  0
  2 17  1  6  0  0  0
  3  1  1  0  0  0  0
  4  2  1  0  0  0  0
  5  9  1  0  0  0  0
 33 34  1  0  0  0  0
 34 35  1  0  0  0  0
 35 36  1  0  0  0  0
 36 32  1  0  0  0  0
  6  3  1  0  0  0  0
 35 37  1  1  0  0  0
  7  1  1  0  0  0  0
 35 38  1  0  0  0  0
  8  4  1  0  0  0  0
 37 39  1  0  0  0  0
  9  7  1  0  0  0  0
 36 40  1  6  0  0  0
 10  2  1  0  0  0  0
 32 41  1  1  0  0  0
M  END
>  <Mol Weight>
564.4921

>  <Formula>
C26H28O14

>  <chembl_id>
CHEMBL1077561

$$$$

  Mrv0541 06201412482D          

 43 43  0  0  0  0            999 V2000
   -1.0680  -15.8426    0.0000 N   0  0  0  0  0  0  0  0  0  0  0  0
   -1.0680  -15.0164    0.0000 C   0  0  0  0  0  0  0  0  0  0  0  0
   -1.7871  -14.6012    0.0000 N   0  0  0  0  0  0  0  0  0  0  0  0
   -0.3531  -14.6012    0.0000 N   0  0  0  0  0  0  0  0  0  0  0  0
   -3.2170  -18.7321    0.0000 N   0  0  0  0  0  0  0  0  0  0  0  0
   -2.5021  -18.3211    0.0000 C   0  0  2  0  0  0  0  0  0  0  0  0
   -1.7871  -19.5583    0.0000 O   0  0  0  0  0  0  0  0  0  0  0  0
   -1.7871  -18.7321    0.0000 C   0  0  0  0  0  0  0  0  0  0  0  0
   -2.5021  -17.4950    0.0000 C   0  0  0  0  0  0  0  0  0  0  0  0
   -1.7871  -17.0797    0.0000 C   0  0  0  0  0  0  0  0  0  0  0  0
   -1.7871  -16.2536    0.0000 C   0  0  0  0  0  0  0  0  0  0  0  0
   -1.0680  -18.3211    0.0000 N   0  0  0  0  0  0  0  0  0  0  0  0
   -0.3531  -18.7321    0.0000 C   0  0  2  0  0  0  0  0  0  0  0  0
    0.3618  -17.4950    0.0000 O   0  0  0  0  0  0  0  0  0  0  0  0
    0.3618  -18.3211    0.0000 C   0  0  0  0  0  0  0  0  0  0  0  0
   -0.3531  -19.5583    0.0000 C   0  0  0  0  0  0  0  0  0  0  0  0
    0.3618  -19.9735    0.0000 C   0  0  0  0  0  0  0  0  0  0  0  0
   -1.0680  -19.9735    0.0000 C   0  0  0  0  0  0  0  0  0  0  0  0
    3.2216  -15.8426    0.0000 N   0  0  0  0  0  0  0  0  0  0  0  0
    3.2216  -15.0164    0.0000 C   0  0  0  0  0  0  0  0  0  0  0  0
    2.5067  -14.6012    0.0000 N   0  0  0  0  0  0  0  0  0  0  0  0
    3.9407  -14.6012    0.0000 N   0  0  0  0  0  0  0  0  0  0  0  0
    1.0768  -18.7321    0.0000 N   0  0  0  0  0  0  0  0  0  0  0  0
    1.7917  -18.3211    0.0000 C   0  0  2  0  0  0  0  0  0  0  0  0
    2.5067  -19.5583    0.0000 O   0  0  0  0  0  0  0  0  0  0  0  0
    2.5067  -18.7321    0.0000 C   0  0  0  0  0  0  0  0  0  0  0  0
    1.7917  -17.4950    0.0000 C   0  0  0  0  0  0  0  0  0  0  0  0
    2.5067  -17.0797    0.0000 C   0  0  0  0  0  0  0  0  0  0  0  0
    2.5067  -16.2536    0.0000 C   0  0  0  0  0  0  0  0  0  0  0  0
    3.2216  -18.3211    0.0000 N   0  0  0  0  0  0  0  0  0  0  0  0
   -3.9299  -18.3188    0.0000 C   0  0  0  0  0  0  0  0  0  0  0  0
   -4.6444  -18.7295    0.0000 C   0  0  0  0  0  0  0  0  0  0  0  0
   -3.9284  -17.4947    0.0000 O   0  0  0  0  0  0  0  0  0  0  0  0
    3.9345  -18.7345    0.0000 C   0  0  0  0  0  0  0  0  0  0  0  0
    4.6489  -18.3238    0.0000 C   0  0  0  0  0  0  0  0  0  0  0  0
    5.3596  -18.7389    0.0000 C   0  0  0  0  0  0  0  0  0  0  0  0
    6.0737  -18.3289    0.0000 C   0  0  0  0  0  0  0  0  0  0  0  0
    6.0756  -17.5039    0.0000 C   0  0  0  0  0  0  0  0  0  0  0  0
    5.3576  -17.0906    0.0000 C   0  0  0  0  0  0  0  0  0  0  0  0
    4.6466  -17.5031    0.0000 C   0  0  0  0  0  0  0  0  0  0  0  0
    6.7895  -17.0922    0.0000 C   0  0  0  0  0  0  0  0  0  0  0  0
    7.5030  -17.5047    0.0000 N   0  0  0  0  0  0  0  0  0  0  0  0
    6.7899  -16.2681    0.0000 N   0  0  0  0  0  0  0  0  0  0  0  0
 11  1  1  0  0  0  0
 12 13  1  0  0  0  0
 13 15  1  0  0  0  0
 15 14  2  0  0  0  0
 13 16  1  6  0  0  0
 16 17  1  0  0  0  0
 16 18  1  0  0  0  0
 19 20  1  0  0  0  0
 20 21  1  0  0  0  0
 20 22  2  0  0  0  0
 23 24  1  0  0  0  0
 24 26  1  0  0  0  0
 26 25  2  0  0  0  0
 24 27  1  1  0  0  0
 27 28  1  0  0  0  0
 28 29  1  0  0  0  0
 29 19  1  0  0  0  0
  5 31  1  0  0  0  0
  8 12  1  0  0  0  0
 31 32  1  0  0  0  0
 15 23  1  0  0  0  0
 31 33  2  0  0  0  0
 26 30  1  0  0  0  0
 30 34  1  0  0  0  0
  1  2  1  0  0  0  0
 34 35  1  0  0  0  0
  2  3  1  0  0  0  0
 35 36  2  0  0  0  0
  2  4  2  0  0  0  0
 36 37  1  0  0  0  0
  5  6  1  0  0  0  0
 37 38  2  0  0  0  0
  6  8  1  0  0  0  0
 38 39  1  0  0  0  0
  8  7  2  0  0  0  0
 39 40  2  0  0  0  0
 40 35  1  0  0  0  0
  6  9  1  1  0  0  0
 38 41  1  0  0  0  0
  9 10  1  0  0  0  0
 41 42  1  0  0  0  0
 10 11  1  0  0  0  0
 41 43  2  0  0  0  0
M  END
>  <Mol Weight>
602.7321

>  <Formula>
C27H46N12O4

>  <chembl_id>
CHEMBL569918

$$$$

  Mrv0541 06201412482D          

 42 47  0  0  0  0            999 V2000
   22.4571   -0.5599    0.0000 C   0  0  0  0  0  0  0  0  0  0  0  0
   23.0401    0.0273    0.0000 C   0  0  0  0  0  0  0  0  0  0  0  0
   22.4529    0.6102    0.0000 C   0  0  0  0  0  0  0  0  0  0  0  0
   21.8700    0.0231    0.0000 C   0  0  0  0  0  0  0  0  0  0  0  0
   19.6045   -2.2263    0.0000 C   0  0  0  0  0  0  0  0  0  0  0  0
   20.3204   -1.8133    0.0000 C   0  0  0  0  0  0  0  0  0  0  0  0
   20.3176   -0.9832    0.0000 C   0  0  0  0  0  0  0  0  0  0  0  0
   19.6027   -0.5744    0.0000 C   0  0  0  0  0  0  0  0  0  0  0  0
   18.8901   -1.8137    0.0000 C   0  0  0  0  0  0  0  0  0  0  0  0
   18.8913   -0.9853    0.0000 C   0  0  0  0  0  0  0  0  0  0  0  0
   18.1038   -0.7282    0.0000 N   0  0  0  0  0  0  0  0  0  0  0  0
   17.6159   -1.3976    0.0000 C   0  0  0  0  0  0  0  0  0  0  0  0
   18.1018   -2.0684    0.0000 N   0  0  0  0  0  0  0  0  0  0  0  0
   17.8460   -2.8540    0.0000 C   0  0  0  0  0  0  0  0  0  0  0  0
   17.0202   -2.8502    0.0000 C   0  0  0  0  0  0  0  0  0  0  0  0
   16.6060   -3.5589    0.0000 C   0  0  0  0  0  0  0  0  0  0  0  0
   17.0126   -4.2765    0.0000 C   0  0  0  0  0  0  0  0  0  0  0  0
   17.8381   -4.2809    0.0000 C   0  0  0  0  0  0  0  0  0  0  0  0
   18.2569   -3.5676    0.0000 C   0  0  0  0  0  0  0  0  0  0  0  0
   21.0301   -0.5683    0.0000 C   0  0  0  0  0  0  0  0  0  0  0  0
   21.7457   -0.9778    0.0000 N   0  0  0  0  0  0  0  0  0  0  0  0
   21.0270    0.2562    0.0000 O   0  0  0  0  0  0  0  0  0  0  0  0
   23.1737   -0.9725    0.0000 C   0  0  0  0  0  0  0  0  0  0  0  0
   23.1747   -1.7970    0.0000 O   0  0  0  0  0  0  0  0  0  0  0  0
   23.8873   -0.5594    0.0000 N   0  0  0  0  0  0  0  0  0  0  0  0
   24.6018   -0.9708    0.0000 C   0  0  0  0  0  0  0  0  0  0  0  0
   24.5999   -1.7958    0.0000 C   0  0  0  0  0  0  0  0  0  0  0  0
   25.3136   -2.2072    0.0000 C   0  0  0  0  0  0  0  0  0  0  0  0
   26.0282   -1.7940    0.0000 C   0  0  0  0  0  0  0  0  0  0  0  0
   26.0245   -0.9652    0.0000 C   0  0  0  0  0  0  0  0  0  0  0  0
   25.3102   -0.5577    0.0000 C   0  0  0  0  0  0  0  0  0  0  0  0
   26.7432   -2.2045    0.0000 C   0  0  0  0  0  0  0  0  0  0  0  0
   27.4562   -1.7904    0.0000 C   0  0  0  0  0  0  0  0  0  0  0  0
   28.1713   -2.2009    0.0000 C   0  0  0  0  0  0  0  0  0  0  0  0
   28.1770   -3.0252    0.0000 O   0  0  0  0  0  0  0  0  0  0  0  0
   28.8879   -1.7867    0.0000 O   0  0  0  0  0  0  0  0  0  0  0  0
   16.7947   -1.3963    0.0000 C   0  0  0  0  0  0  0  0  0  0  0  0
   16.3840   -0.6800    0.0000 C   0  0  0  0  0  0  0  0  0  0  0  0
   15.5603   -0.6784    0.0000 C   0  0  0  0  0  0  0  0  0  0  0  0
   15.1462   -1.3924    0.0000 C   0  0  0  0  0  0  0  0  0  0  0  0
   15.5618   -2.1094    0.0000 C   0  0  0  0  0  0  0  0  0  0  0  0
   16.3842   -2.1074    0.0000 C   0  0  0  0  0  0  0  0  0  0  0  0
  7 20  1  0  0  0  0
 20 21  1  0  0  0  0
  9  5  1  0  0  0  0
 20 22  2  0  0  0  0
 21  1  1  0  0  0  0
  1  2  1  0  0  0  0
  1 23  1  0  0  0  0
  5  6  2  0  0  0  0
 23 24  2  0  0  0  0
 10 11  1  0  0  0  0
 23 25  1  0  0  0  0
 11 12  2  0  0  0  0
 25 26  1  0  0  0  0
 12 13  1  0  0  0  0
 26 27  2  0  0  0  0
 13  9  1  0  0  0  0
 27 28  1  0  0  0  0
 14 15  1  0  0  0  0
 28 29  2  0  0  0  0
  2  3  1  0  0  0  0
 29 30  1  0  0  0  0
  6  7  1  0  0  0  0
 30 31  2  0  0  0  0
 31 26  1  0  0  0  0
  3  4  1  0  0  0  0
 29 32  1  0  0  0  0
  7  8  2  0  0  0  0
 32 33  2  0  0  0  0
  8 10  1  0  0  0  0
 33 34  1  0  0  0  0
  9 10  2  0  0  0  0
 14 19  1  0  0  0  0
 34 35  1  0  0  0  0
 34 36  2  0  0  0  0
 15 16  1  0  0  0  0
 16 17  1  0  0  0  0
 37 38  2  0  0  0  0
 17 18  1  0  0  0  0
 38 39  1  0  0  0  0
 18 19  1  0  0  0  0
 39 40  2  0  0  0  0
 13 14  1  0  0  0  0
 40 41  1  0  0  0  0
  4  1  1  0  0  0  0
 41 42  2  0  0  0  0
 42 37  1  0  0  0  0
 12 37  1  0  0  0  0
M  END
>  <Mol Weight>
562.6582

>  <Formula>
C34H34N4O4

>  <chembl_id>
CHEMBL1077330

$$$$

  Mrv0541 06201412482D          

 43 46  0  0  0  0            999 V2000
    0.6265   -5.5971    0.0000 O   0  0  0  0  0  0  0  0  0  0  0  0
    1.4515   -5.5971    0.0000 C   0  0  0  0  0  0  0  0  0  0  0  0
    1.8640   -6.3116    0.0000 O   0  0  0  0  0  0  0  0  0  0  0  0
    1.8640   -4.8827    0.0000 C   0  0  0  0  0  0  0  0  0  0  0  0
    1.1496   -4.4703    0.0000 F   0  0  0  0  0  0  0  0  0  0  0  0
    2.5784   -5.2952    0.0000 F   0  0  0  0  0  0  0  0  0  0  0  0
    2.2764   -4.1683    0.0000 F   0  0  0  0  0  0  0  0  0  0  0  0
    7.0884   -4.0102    0.0000 C   0  0  0  0  0  0  0  0  0  0  0  0
    6.3704   -3.6041    0.0000 O   0  0  0  0  0  0  0  0  0  0  0  0
    5.6596   -4.0228    0.0000 C   0  0  0  0  0  0  0  0  0  0  0  0
    4.9390   -3.6125    0.0000 C   0  0  0  0  0  0  0  0  0  0  0  0
    4.2282   -4.0312    0.0000 C   0  0  0  0  0  0  0  0  0  0  0  0
    4.2307   -4.8562    0.0000 C   0  0  0  0  0  0  0  0  0  0  0  0
    4.9513   -5.2666    0.0000 C   0  0  0  0  0  0  0  0  0  0  0  0
    4.9537   -6.0915    0.0000 C   0  0  0  0  0  0  0  0  0  0  0  0
    5.6693   -6.5019    0.0000 N   0  0  0  0  0  0  0  0  0  0  0  0
    5.6718   -7.3268    0.0000 C   0  0  0  0  0  0  0  0  0  0  0  0
    4.9586   -7.7414    0.0000 O   0  0  0  0  0  0  0  0  0  0  0  0
    6.3874   -7.7371    0.0000 C   0  0  0  0  0  0  0  0  0  0  0  0
    6.3874   -8.5663    0.0000 C   0  0  0  0  0  0  0  0  0  0  0  0
    7.1031   -8.9768    0.0000 C   0  0  0  0  0  0  0  0  0  0  0  0
    7.8187   -8.5663    0.0000 C   0  0  0  0  0  0  0  0  0  0  0  0
    7.8187   -7.7371    0.0000 C   0  0  0  0  0  0  0  0  0  0  0  0
    7.1031   -7.3183    0.0000 N   0  0  0  0  0  0  0  0  0  0  0  0
    8.5343   -7.3268    0.0000 C   0  0  0  0  0  0  0  0  0  0  0  0
    8.5343   -6.4976    0.0000 C   0  0  0  0  0  0  0  0  0  0  0  0
    9.2500   -6.0872    0.0000 C   0  0  0  0  0  0  0  0  0  0  0  0
    9.9656   -6.4976    0.0000 C   0  0  0  0  0  0  0  0  0  0  0  0
   10.6794   -6.0840    0.0000 C   0  0  0  0  0  0  0  0  0  0  0  0
   10.6782   -5.2591    0.0000 N   0  0  0  0  0  0  0  0  0  0  0  0
   11.3933   -4.8393    0.0000 C   0  0  0  0  0  0  0  0  0  0  0  0
   11.3920   -4.0100    0.0000 C   0  0  0  0  0  0  0  0  0  0  0  0
   10.6758   -3.6006    0.0000 C   0  0  0  0  0  0  0  0  0  0  0  0
    9.9607   -4.0121    0.0000 C   0  0  0  0  0  0  0  0  0  0  0  0
    9.9620   -4.8413    0.0000 C   0  0  0  0  0  0  0  0  0  0  0  0
   10.6747   -2.7758    0.0000 N   0  0  0  0  0  0  0  0  0  0  0  0
   11.3406   -2.2884    0.0000 C   0  0  0  0  0  0  0  0  0  0  0  0
   11.0879   -1.5032    0.0000 C   0  0  0  0  0  0  0  0  0  0  0  0
   10.2617   -1.5031    0.0000 C   0  0  0  0  0  0  0  0  0  0  0  0
   10.0044   -2.2883    0.0000 C   0  0  0  0  0  0  0  0  0  0  0  0
    9.9656   -7.3268    0.0000 C   0  0  0  0  0  0  0  0  0  0  0  0
    9.2500   -7.7456    0.0000 C   0  0  0  0  0  0  0  0  0  0  0  0
    5.6694   -4.8520    0.0000 C   0  0  0  0  0  0  0  0  0  0  0  0
  1  2  1  0  0  0  0
  2  3  2  0  0  0  0
  2  4  1  0  0  0  0
  4  5  1  0  0  0  0
  4  6  1  0  0  0  0
  4  7  1  0  0  0  0
  8  9  1  0  0  0  0
  9 10  1  0  0  0  0
 10 43  2  0  0  0  0
 10 11  1  0  0  0  0
 11 12  2  0  0  0  0
 12 13  1  0  0  0  0
 13 14  2  0  0  0  0
 14 15  1  0  0  0  0
 15 16  1  0  0  0  0
 16 17  1  0  0  0  0
 17 18  2  0  0  0  0
 17 19  1  0  0  0  0
 19 24  2  0  0  0  0
 19 20  1  0  0  0  0
 20 21  2  0  0  0  0
 21 22  1  0  0  0  0
 22 23  2  0  0  0  0
 23 24  1  0  0  0  0
 23 25  1  0  0  0  0
 25 42  2  0  0  0  0
 25 26  1  0  0  0  0
 26 27  2  0  0  0  0
 27 28  1  0  0  0  0
 28 29  1  0  0  0  0
 29 30  1  0  0  0  0
 30 35  1  0  0  0  0
 30 31  1  0  0  0  0
 31 32  1  0  0  0  0
 32 33  1  0  0  0  0
 33 34  1  0  0  0  0
 34 35  1  0  0  0  0
 33 36  1  0  0  0  0
 36 40  1  0  0  0  0
 36 37  1  0  0  0  0
 37 38  1  0  0  0  0
 38 39  1  0  0  0  0
 39 40  1  0  0  0  0
 28 41  2  0  0  0  0
 41 42  1  0  0  0  0
 14 43  1  0  0  0  0
M  END
>  <Mol Weight>
598.6558

>  <Formula>
C32H37F3N4O4

>  <chembl_id>
CHEMBL581092

$$$$

  Mrv0541 06201412482D          

 44 49  0  0  0  0            999 V2000
   -1.8792  -14.7958    0.0000 C   0  0  0  0  0  0  0  0  0  0  0  0
   -2.2958  -14.0792    0.0000 C   0  0  2  0  0  0  0  0  0  0  0  0
   -3.1202  -14.0817    0.0000 C   0  0  0  0  0  0  0  0  0  0  0  0
   -3.5342  -14.7992    0.0000 N   0  0  0  0  0  0  0  0  0  0  0  0
   -3.1176  -15.5158    0.0000 C   0  0  0  0  0  0  0  0  0  0  0  0
   -2.2869  -15.5150    0.0000 O   0  0  0  0  0  0  0  0  0  0  0  0
    1.0905  -14.1477    0.0000 C   0  0  0  0  0  0  0  0  0  0  0  0
    0.6001  -14.8144    0.0000 C   0  0  0  0  0  0  0  0  0  0  0  0
    1.0832  -15.4820    0.0000 C   0  0  0  0  0  0  0  0  0  0  0  0
    1.8732  -14.4088    0.0000 C   0  0  1  0  0  0  0  0  0  0  0  0
    1.8687  -15.2338    0.0000 C   0  0  2  0  0  0  0  0  0  0  0  0
    2.6519  -15.4930    0.0000 C   0  0  0  0  0  0  0  0  0  0  0  0
    3.1406  -14.8282    0.0000 N   0  0  0  0  0  0  0  0  0  0  0  0
    2.6592  -14.1582    0.0000 C   0  0  0  0  0  0  0  0  0  0  0  0
   -0.2249  -14.8111    0.0000 N   0  0  0  0  0  0  0  0  0  0  0  0
   -0.6379  -14.0941    0.0000 C   0  0  0  0  0  0  0  0  0  0  0  0
   -1.4593  -14.0889    0.0000 C   0  0  0  0  0  0  0  0  0  0  0  0
   -1.4700  -15.5178    0.0000 C   0  0  0  0  0  0  0  0  0  0  0  0
   -0.6424  -15.5247    0.0000 C   0  0  0  0  0  0  0  0  0  0  0  0
    1.8667  -13.5833    0.0000 H   0  0  0  0  0  0  0  0  0  0  0  0
    1.8625  -16.0583    0.0000 H   0  0  0  0  0  0  0  0  0  0  0  0
    3.9656  -14.8327    0.0000 C   0  0  0  0  0  0  0  0  0  0  0  0
    4.3742  -15.5494    0.0000 C   0  0  0  0  0  0  0  0  0  0  0  0
    4.3819  -14.1204    0.0000 O   0  0  0  0  0  0  0  0  0  0  0  0
    3.9574  -16.2585    0.0000 C   0  0  0  0  0  0  0  0  0  0  0  0
    4.3653  -16.9747    0.0000 N   0  0  0  0  0  0  0  0  0  0  0  0
    5.1912  -16.9796    0.0000 C   0  0  0  0  0  0  0  0  0  0  0  0
    5.6074  -16.2623    0.0000 N   0  0  0  0  0  0  0  0  0  0  0  0
    5.1971  -15.5491    0.0000 C   0  0  0  0  0  0  0  0  0  0  0  0
    3.1324  -16.2529    0.0000 C   0  0  0  0  0  0  0  0  0  0  0  0
    5.6100  -14.8349    0.0000 C   0  0  0  0  0  0  0  0  0  0  0  0
   -1.8855  -13.3634    0.0000 C   0  0  0  0  0  0  0  0  0  0  0  0
   -1.0605  -13.3610    0.0000 C   0  0  0  0  0  0  0  0  0  0  0  0
   -0.6502  -12.6452    0.0000 C   0  0  0  0  0  0  0  0  0  0  0  0
    0.1748  -12.6427    0.0000 C   0  0  0  0  0  0  0  0  0  0  0  0
   -3.5286  -16.2311    0.0000 O   0  0  0  0  0  0  0  0  0  0  0  0
   -4.3592  -14.8005    0.0000 C   0  0  0  0  0  0  0  0  0  0  0  0
   -4.7729  -14.0867    0.0000 C   0  0  0  0  0  0  0  0  0  0  0  0
   -4.3632  -13.3738    0.0000 C   0  0  0  0  0  0  0  0  0  0  0  0
   -4.7734  -12.6622    0.0000 C   0  0  0  0  0  0  0  0  0  0  0  0
   -5.5987  -12.6593    0.0000 O   0  0  0  0  0  0  0  0  0  0  0  0
   -6.0127  -13.3743    0.0000 C   0  0  0  0  0  0  0  0  0  0  0  0
   -5.6004  -14.0922    0.0000 C   0  0  0  0  0  0  0  0  0  0  0  0
    0.1833  -14.0958    0.0000 C   0  0  0  0  0  0  0  0  0  0  0  0
 10 11  1  0  0  0  0
 11 21  1  1  0  0  0
  2  3  1  0  0  0  0
 13 22  1  0  0  0  0
  3  4  1  0  0  0  0
 22 23  1  0  0  0  0
  4  5  1  0  0  0  0
 22 24  2  0  0  0  0
  5  6  1  0  0  0  0
 23 25  2  0  0  0  0
 25 26  1  0  0  0  0
 11 12  1  0  0  0  0
 26 27  2  0  0  0  0
 12 13  1  0  0  0  0
 27 28  1  0  0  0  0
 13 14  1  0  0  0  0
 28 29  2  0  0  0  0
 29 23  1  0  0  0  0
 14 10  1  0  0  0  0
 25 30  1  0  0  0  0
  1  2  1  0  0  0  0
 29 31  1  0  0  0  0
  8 15  1  0  0  0  0
  2 32  1  6  0  0  0
 15 16  1  0  0  0  0
 32 33  1  0  0  0  0
  1  6  1  0  0  0  0
 33 34  1  0  0  0  0
 10  7  1  0  0  0  0
 34 35  1  0  0  0  0
  7  8  1  0  0  0  0
  5 36  2  0  0  0  0
  8  9  1  0  0  0  0
  4 37  1  0  0  0  0
 15 19  1  0  0  0  0
 37 38  1  0  0  0  0
 38 39  1  0  0  0  0
 16 17  1  0  0  0  0
 17  1  1  0  0  0  0
  1 18  1  0  0  0  0
 18 19  1  0  0  0  0
  9 11  1  0  0  0  0
 38 43  1  0  0  0  0
 39 40  1  0  0  0  0
 40 41  1  0  0  0  0
 41 42  1  0  0  0  0
 42 43  1  0  0  0  0
 10 20  1  1  0  0  0
  8 44  1  0  0  0  0
M  END
>  <Mol Weight>
581.7891

>  <Formula>
C33H51N5O4

>  <chembl_id>
CHEMBL1077360

$$$$

  Mrv0541 06201412482D          

 44 51  0  0  0  0            999 V2000
   -1.4977  -23.8315    0.0000 C   0  0  2  0  0  0  0  0  0  0  0  0
   -1.2474  -25.7576    0.0000 C   0  0  2  0  0  0  0  0  0  0  0  0
   -0.7807  -22.6096    0.0000 C   0  0  0  0  0  0  0  0  0  0  0  0
   -0.0721  -23.8442    0.0000 C   0  0  2  0  0  0  0  0  0  0  0  0
   -0.0679  -21.3707    0.0000 C   0  0  0  0  0  0  0  0  0  0  0  0
   -0.4200  -25.7576    0.0000 N   0  0  0  0  0  0  0  0  0  0  0  0
    0.7298  -21.6209    0.0000 N   0  0  0  0  0  0  0  0  0  0  0  0
   -1.5062  -23.0169    0.0000 C   0  0  2  0  0  0  0  0  0  0  0  0
   -0.0679  -23.0210    0.0000 C   0  0  0  0  0  0  0  0  0  0  0  0
   -1.9177  -24.5443    0.0000 C   0  0  0  0  0  0  0  0  0  0  0  0
   -0.0679  -20.5433    0.0000 C   0  0  0  0  0  0  0  0  0  0  0  0
    1.2135  -20.9549    0.0000 C   0  0  0  0  0  0  0  0  0  0  0  0
    0.7298  -20.2845    0.0000 C   0  0  0  0  0  0  0  0  0  0  0  0
   -2.2063  -24.2557    0.0000 C   0  0  0  0  0  0  0  0  0  0  0  0
   -2.9148  -23.8399    0.0000 N   0  0  0  0  0  0  0  0  0  0  0  0
   -1.4935  -21.3707    0.0000 N   0  0  0  0  0  0  0  0  0  0  0  0
   -2.2104  -22.6096    0.0000 C   0  0  0  0  0  0  0  0  0  0  0  0
   -1.8286  -26.3431    0.0000 C   0  0  0  0  0  0  0  0  0  0  0  0
   -1.2474  -27.7432    0.0000 C   0  0  0  0  0  0  0  0  0  0  0  0
   -2.9232  -23.0169    0.0000 C   0  0  0  0  0  0  0  0  0  0  0  0
   -0.5812  -24.8327    0.0000 C   0  0  0  0  0  0  0  0  0  0  0  0
   -1.4044  -24.8327    0.0000 C   0  0  0  0  0  0  0  0  0  0  0  0
    0.1570  -26.3431    0.0000 C   0  0  0  0  0  0  0  0  0  0  0  0
   -1.8286  -27.1704    0.0000 C   0  0  0  0  0  0  0  0  0  0  0  0
    0.6407  -24.2600    0.0000 C   0  0  0  0  0  0  0  0  0  0  0  0
   -1.4935  -20.5433    0.0000 C   0  0  0  0  0  0  0  0  0  0  0  0
   -0.7807  -20.1317    0.0000 C   0  0  0  0  0  0  0  0  0  0  0  0
    1.0564  -19.5208    0.0000 C   0  0  0  0  0  0  0  0  0  0  0  0
    2.0408  -20.8658    0.0000 C   0  0  0  0  0  0  0  0  0  0  0  0
   -3.6318  -24.2557    0.0000 C   0  0  0  0  0  0  0  0  0  0  0  0
    0.1570  -27.1704    0.0000 C   0  0  0  0  0  0  0  0  0  0  0  0
   -0.4200  -27.7432    0.0000 C   0  0  0  0  0  0  0  0  0  0  0  0
    0.1316  -25.2443    0.0000 C   0  0  0  0  0  0  0  0  0  0  0  0
   -2.1086  -25.2528    0.0000 C   0  0  0  0  0  0  0  0  0  0  0  0
    1.8795  -19.4360    0.0000 C   0  0  0  0  0  0  0  0  0  0  0  0
   -3.2287  -24.9557    0.0000 C   0  0  0  0  0  0  0  0  0  0  0  0
    2.3674  -20.1106    0.0000 C   0  0  0  0  0  0  0  0  0  0  0  0
   -2.5159  -24.5443    0.0000 C   0  0  0  0  0  0  0  0  0  0  0  0
   -1.5062  -22.1937    0.0000 H   0  0  0  0  0  0  0  0  0  0  0  0
    0.6534  -23.4199    0.0000 O   0  0  0  0  0  0  0  0  0  0  0  0
   -2.0874  -25.7576    0.0000 H   0  0  0  0  0  0  0  0  0  0  0  0
   -0.7807  -21.7822    0.0000 C   0  0  0  0  0  0  0  0  0  0  0  0
   -0.7934  -24.2557    0.0000 C   0  0  2  0  0  0  0  0  0  0  0  0
   -0.7934  -23.4307    0.0000 H   0  0  0  0  0  0  0  0  0  0  0  0
  3  8  1  0  0  0  0
  4 43  1  0  0  0  0
  5 42  1  0  0  0  0
 43  6  1  0  0  0  0
 43  1  1  0  0  0  0
  7  5  1  0  0  0  0
  8  1  1  0  0  0  0
  9  3  2  0  0  0  0
 42  3  1  0  0  0  0
  1 10  1  6  0  0  0
 11  5  2  0  0  0  0
 12  7  1  0  0  0  0
 13 11  1  0  0  0  0
 14  1  1  0  0  0  0
 15 14  1  0  0  0  0
 16 42  1  0  0  0  0
 17  8  1  0  0  0  0
  2 18  1  0  0  0  0
 19 24  1  0  0  0  0
 20 15  1  0  0  0  0
 21 33  1  0  0  0  0
 22 21  2  0  0  0  0
 23  6  1  0  0  0  0
 24 18  2  0  0  0  0
 25  4  1  0  0  0  0
 26 16  1  0  0  0  0
 27 26  1  0  0  0  0
 28 13  1  0  0  0  0
 29 12  1  0  0  0  0
 30 15  1  0  0  0  0
 31 23  1  0  0  0  0
 32 31  1  0  0  0  0
 33 25  1  0  0  0  0
 34 38  1  0  0  0  0
 35 28  2  0  0  0  0
 36 30  1  0  0  0  0
 37 29  2  0  0  0  0
 38 36  1  0  0  0  0
  8 39  1  6  0  0  0
  6  2  1  0  0  0  0
 17 20  1  0  0  0  0
  4  9  1  0  0  0  0
 19 32  1  0  0  0  0
 34 22  1  0  0  0  0
 11 27  1  0  0  0  0
 13 12  2  0  0  0  0
 37 35  1  0  0  0  0
  4 40  1  6  0  0  0
  2 10  1  0  0  0  0
  2 41  1  6  0  0  0
 43 44  1  1  0  0  0
M  END
>  <Mol Weight>
552.7925

>  <Formula>
C36H48N4O

>  <chembl_id>
CHEMBL592631

$$$$

  Mrv0541 06201412482D          

 44 48  0  0  0  0            999 V2000
    1.1986   -8.8958    0.0000 C   0  0  0  0  0  0  0  0  0  0  0  0
    1.1974   -9.7232    0.0000 C   0  0  0  0  0  0  0  0  0  0  0  0
    1.9122  -10.1360    0.0000 C   0  0  0  0  0  0  0  0  0  0  0  0
    1.9104   -8.4830    0.0000 C   0  0  0  0  0  0  0  0  0  0  0  0
    2.6258   -8.8922    0.0000 C   0  0  0  0  0  0  0  0  0  0  0  0
    2.6292   -9.7252    0.0000 C   0  0  0  0  0  0  0  0  0  0  0  0
    3.3484  -10.1365    0.0000 C   0  0  0  0  0  0  0  0  0  0  0  0
    4.0688   -9.7193    0.0000 C   0  0  1  0  0  0  0  0  0  0  0  0
    4.0654   -8.8863    0.0000 C   0  0  2  0  0  0  0  0  0  0  0  0
    3.3416   -8.4704    0.0000 O   0  0  0  0  0  0  0  0  0  0  0  0
    1.9108  -10.9610    0.0000 O   0  0  0  0  0  0  0  0  0  0  0  0
    0.4840   -8.4835    0.0000 O   0  0  0  0  0  0  0  0  0  0  0  0
    3.3507  -10.9615    0.0000 O   0  0  0  0  0  0  0  0  0  0  0  0
    4.7844  -10.1299    0.0000 O   0  0  0  0  0  0  0  0  0  0  0  0
    4.7786   -8.4715    0.0000 C   0  0  0  0  0  0  0  0  0  0  0  0
    5.4935   -8.8839    0.0000 C   0  0  0  0  0  0  0  0  0  0  0  0
    5.4834   -7.2339    0.0000 C   0  0  0  0  0  0  0  0  0  0  0  0
    4.7736   -7.6503    0.0000 C   0  0  0  0  0  0  0  0  0  0  0  0
    6.2041   -7.6440    0.0000 C   0  0  0  0  0  0  0  0  0  0  0  0
    6.2040   -8.4709    0.0000 C   0  0  0  0  0  0  0  0  0  0  0  0
    6.9161   -8.8822    0.0000 O   0  0  0  0  0  0  0  0  0  0  0  0
    7.6329   -8.4712    0.0000 C   0  0  0  0  0  0  0  0  0  0  0  0
    7.6331   -7.6443    0.0000 C   0  0  0  0  0  0  0  0  0  0  0  0
    6.9164   -7.2284    0.0000 O   0  0  0  0  0  0  0  0  0  0  0  0
    8.3480   -7.2327    0.0000 C   0  0  0  0  0  0  0  0  0  0  0  0
    9.0620   -7.6460    0.0000 O   0  0  0  0  0  0  0  0  0  0  0  0
    8.3467   -8.8849    0.0000 C   0  0  0  0  0  0  0  0  0  0  0  0
    8.3417   -9.7094    0.0000 C   0  0  0  0  0  0  0  0  0  0  0  0
    9.0547  -10.1230    0.0000 C   0  0  0  0  0  0  0  0  0  0  0  0
    9.7708   -9.7115    0.0000 C   0  0  0  0  0  0  0  0  0  0  0  0
    9.7695   -8.8823    0.0000 C   0  0  0  0  0  0  0  0  0  0  0  0
    9.0559   -8.4725    0.0000 C   0  0  0  0  0  0  0  0  0  0  0  0
   10.4813   -8.4728    0.0000 O   0  0  0  0  0  0  0  0  0  0  0  0
   10.4797   -7.6478    0.0000 C   0  0  0  0  0  0  0  0  0  0  0  0
   10.4852  -10.1242    0.0000 O   0  0  0  0  0  0  0  0  0  0  0  0
   -0.2304   -8.8961    0.0000 C   0  0  0  0  0  0  0  0  0  0  0  0
   -0.9449   -8.4838    0.0000 C   0  0  0  0  0  0  0  0  0  0  0  0
   -0.2302   -9.7211    0.0000 O   0  0  0  0  0  0  0  0  0  0  0  0
   -1.6593   -8.8965    0.0000 C   0  0  0  0  0  0  0  0  0  0  0  0
   -2.3739   -8.4842    0.0000 C   0  0  0  0  0  0  0  0  0  0  0  0
   -3.0883   -8.8968    0.0000 C   0  0  0  0  0  0  0  0  0  0  0  0
   -3.8028   -8.4845    0.0000 C   0  0  0  0  0  0  0  0  0  0  0  0
   -4.5172   -8.8972    0.0000 C   0  0  0  0  0  0  0  0  0  0  0  0
   -5.2318   -8.4848    0.0000 C   0  0  0  0  0  0  0  0  0  0  0  0
  9 10  1  0  0  0  0
  5  6  1  0  0  0  0
  3 11  1  0  0  0  0
 19 24  1  0  0  0  0
 20 21  1  0  0  0  0
 21 22  1  0  0  0  0
 22 23  1  0  0  0  0
 23 24  1  0  0  0  0
 23 25  1  0  0  0  0
  1 12  1  0  0  0  0
 25 26  1  0  0  0  0
  2  3  1  0  0  0  0
 22 27  1  0  0  0  0
  7 13  2  0  0  0  0
 27 28  2  0  0  0  0
  3  6  2  0  0  0  0
 28 29  1  0  0  0  0
  8 14  1  1  0  0  0
 29 30  2  0  0  0  0
  1  2  2  0  0  0  0
 30 31  1  0  0  0  0
  9 15  1  6  0  0  0
 31 32  2  0  0  0  0
 32 27  1  0  0  0  0
  5  4  2  0  0  0  0
 15 16  2  0  0  0  0
 33 34  1  0  0  0  0
 31 33  1  0  0  0  0
 16 20  1  0  0  0  0
 30 35  1  0  0  0  0
  4  1  1  0  0  0  0
 12 36  1  0  0  0  0
 19 17  1  0  0  0  0
 36 37  1  0  0  0  0
  5 10  1  0  0  0  0
 36 38  2  0  0  0  0
 17 18  2  0  0  0  0
 37 39  1  0  0  0  0
 18 15  1  0  0  0  0
 39 40  1  0  0  0  0
 19 20  2  0  0  0  0
 40 41  1  0  0  0  0
  6  7  1  0  0  0  0
 41 42  1  0  0  0  0
  7  8  1  0  0  0  0
 42 43  1  0  0  0  0
  8  9  1  0  0  0  0
 43 44  1  0  0  0  0
M  END
>  <Mol Weight>
608.6323

>  <Formula>
C33H36O11

>  <chembl_id>
CHEMBL1076895

$$$$

  Mrv0541 06201412482D          

 42 46  0  0  0  0            999 V2000
  -12.3662  -19.7348    0.0000 C   0  0  0  0  0  0  0  0  0  0  0  0
  -12.3651  -20.5623    0.0000 C   0  0  0  0  0  0  0  0  0  0  0  0
  -11.6548  -20.9751    0.0000 C   0  0  0  0  0  0  0  0  0  0  0  0
  -10.9379  -20.5618    0.0000 C   0  0  0  0  0  0  0  0  0  0  0  0
  -10.9350  -19.7312    0.0000 C   0  0  0  0  0  0  0  0  0  0  0  0
  -11.6530  -19.3220    0.0000 C   0  0  0  0  0  0  0  0  0  0  0  0
  -10.2196  -20.9732    0.0000 O   0  0  0  0  0  0  0  0  0  0  0  0
   -9.5083  -20.5595    0.0000 C   0  0  0  0  0  0  0  0  0  0  0  0
   -8.7901  -20.9709    0.0000 C   0  0  0  0  0  0  0  0  0  0  0  0
   -8.0788  -20.5573    0.0000 C   0  0  0  0  0  0  0  0  0  0  0  0
   -7.3606  -20.9687    0.0000 C   0  0  0  0  0  0  0  0  0  0  0  0
   -6.6493  -20.5551    0.0000 C   0  0  0  0  0  0  0  0  0  0  0  0
  -13.0836  -20.9742    0.0000 N   0  0  0  0  0  0  0  0  0  0  0  0
  -13.7946  -20.5611    0.0000 C   0  0  0  0  0  0  0  0  0  0  0  0
  -14.5131  -20.9731    0.0000 N   0  0  0  0  0  0  0  0  0  0  0  0
  -13.7952  -19.7360    0.0000 S   0  0  0  0  0  0  0  0  0  0  0  0
   -5.9282  -20.9664    0.0000 C   0  0  0  0  0  0  0  0  0  0  0  0
   -5.2143  -20.5528    0.0000 C   0  0  0  0  0  0  0  0  0  0  0  0
   -4.4992  -20.9642    0.0000 C   0  0  0  0  0  0  0  0  0  0  0  0
   -3.7853  -20.5506    0.0000 N   0  0  0  0  0  0  0  0  0  0  0  0
   -3.0700  -20.9620    0.0000 C   0  0  0  0  0  0  0  0  0  0  0  0
   -2.3562  -20.5483    0.0000 N   0  0  0  0  0  0  0  0  0  0  0  0
   -3.0688  -21.7870    0.0000 S   0  0  0  0  0  0  0  0  0  0  0  0
   -1.6410  -20.9597    0.0000 C   0  0  0  0  0  0  0  0  0  0  0  0
   -1.6433  -21.7820    0.0000 C   0  0  0  0  0  0  0  0  0  0  0  0
   -0.9290  -22.1933    0.0000 C   0  0  0  0  0  0  0  0  0  0  0  0
   -0.9330  -20.5426    0.0000 C   0  0  0  0  0  0  0  0  0  0  0  0
   -0.2180  -20.9502    0.0000 C   0  0  0  0  0  0  0  0  0  0  0  0
   -0.2110  -21.7766    0.0000 C   0  0  0  0  0  0  0  0  0  0  0  0
    0.5761  -22.0258    0.0000 N   0  0  0  0  0  0  0  0  0  0  0  0
    0.5657  -20.6882    0.0000 C   0  0  0  0  0  0  0  0  0  0  0  0
    1.0545  -21.3513    0.0000 C   0  0  0  0  0  0  0  0  0  0  0  0
    1.8710  -21.2587    0.0000 C   0  0  0  0  0  0  0  0  0  0  0  0
    2.2000  -20.5038    0.0000 C   0  0  0  0  0  0  0  0  0  0  0  0
    1.7061  -19.8407    0.0000 C   0  0  0  0  0  0  0  0  0  0  0  0
    0.8913  -19.9365    0.0000 C   0  0  0  0  0  0  0  0  0  0  0  0
    0.5916  -22.8510    0.0000 C   0  0  0  0  0  0  0  0  0  0  0  0
   -0.1156  -23.2738    0.0000 C   0  0  0  0  0  0  0  0  0  0  0  0
   -0.0995  -24.0980    0.0000 C   0  0  0  0  0  0  0  0  0  0  0  0
    0.6236  -24.4970    0.0000 C   0  0  0  0  0  0  0  0  0  0  0  0
    1.3321  -24.0658    0.0000 C   0  0  0  0  0  0  0  0  0  0  0  0
    1.3125  -23.2430    0.0000 C   0  0  0  0  0  0  0  0  0  0  0  0
 20 21  1  0  0  0  0
  2  3  1  0  0  0  0
 21 22  1  0  0  0  0
 10 11  1  0  0  0  0
 21 23  2  0  0  0  0
  5  6  2  0  0  0  0
 22 24  1  0  0  0  0
 11 12  1  0  0  0  0
 24 25  2  0  0  0  0
  6  1  1  0  0  0  0
 25 26  1  0  0  0  0
 26 29  2  0  0  0  0
  2 13  1  0  0  0  0
 28 27  2  0  0  0  0
 27 24  1  0  0  0  0
 28 29  1  0  0  0  0
  1  2  2  0  0  0  0
 13 14  1  0  0  0  0
  4  7  1  0  0  0  0
 29 30  1  0  0  0  0
 30 32  1  0  0  0  0
 31 28  1  0  0  0  0
 14 15  1  0  0  0  0
  3  4  2  0  0  0  0
 31 32  2  0  0  0  0
 14 16  2  0  0  0  0
 32 33  1  0  0  0  0
  7  8  1  0  0  0  0
 33 34  2  0  0  0  0
 12 17  1  0  0  0  0
 34 35  1  0  0  0  0
 35 36  2  0  0  0  0
 36 31  1  0  0  0  0
 17 18  1  0  0  0  0
 30 37  1  0  0  0  0
  8  9  1  0  0  0  0
 37 38  2  0  0  0  0
 18 19  1  0  0  0  0
 38 39  1  0  0  0  0
  4  5  1  0  0  0  0
 39 40  2  0  0  0  0
 19 20  1  0  0  0  0
 40 41  1  0  0  0  0
  9 10  1  0  0  0  0
 41 42  2  0  0  0  0
 42 37  1  0  0  0  0
M  END
>  <Mol Weight>
595.82

>  <Formula>
C34H37N5OS2

>  <chembl_id>
CHEMBL569031

$$$$

  Mrv0541 06201412482D          

 44 49  0  0  0  0            999 V2000
   -3.2750  -18.5971    0.0000 C   0  0  0  0  0  0  0  0  0  0  0  0
   -2.5609  -19.0050    0.0000 C   0  0  0  0  0  0  0  0  0  0  0  0
   -1.8437  -17.7692    0.0000 C   0  0  2  0  0  0  0  0  0  0  0  0
   -1.8419  -18.5971    0.0000 C   0  0  1  0  0  0  0  0  0  0  0  0
   -1.1316  -19.0036    0.0000 C   0  0  2  0  0  0  0  0  0  0  0  0
   -0.4152  -18.5941    0.0000 C   0  0  1  0  0  0  0  0  0  0  0  0
   -0.4170  -17.7661    0.0000 C   0  0  2  0  0  0  0  0  0  0  0  0
   -1.1351  -17.3520    0.0000 O   0  0  0  0  0  0  0  0  0  0  0  0
   -3.9862  -17.3595    0.0000 C   0  0  0  0  0  0  0  0  0  0  0  0
   -1.8472  -16.7692    0.0000 H   0  0  0  0  0  0  0  0  0  0  0  0
   -1.8526  -19.4145    0.0000 C   0  0  0  0  0  0  0  0  0  0  0  0
   -2.5698  -19.8136    0.0000 O   0  0  0  0  0  0  0  0  0  0  0  0
   -3.1542  -20.3968    0.0000 C   0  0  0  0  0  0  0  0  0  0  0  0
   -3.1573  -21.2172    0.0000 C   0  0  1  0  0  0  0  0  0  0  0  0
   -3.9129  -20.0792    0.0000 O   0  0  0  0  0  0  0  0  0  0  0  0
   -3.8753  -21.6231    0.0000 O   0  0  0  0  0  0  0  0  0  0  0  0
   -2.4517  -21.6317    0.0000 C   0  0  1  0  0  0  0  0  0  0  0  0
   -2.4547  -22.4567    0.0000 C   0  0  0  0  0  0  0  0  0  0  0  0
   -1.7445  -22.8712    0.0000 C   0  0  0  0  0  0  0  0  0  0  0  0
   -1.0311  -22.4607    0.0000 O   0  0  0  0  0  0  0  0  0  0  0  0
   -1.7338  -21.2259    0.0000 C   0  0  0  0  0  0  0  0  0  0  0  0
   -0.3209  -22.8798    0.0000 C   0  0  0  0  0  0  0  0  0  0  0  0
    0.3970  -22.4693    0.0000 C   0  0  0  0  0  0  0  0  0  0  0  0
   -0.3239  -23.7002    0.0000 O   0  0  0  0  0  0  0  0  0  0  0  0
    0.4001  -21.6491    0.0000 C   0  0  0  0  0  0  0  0  0  0  0  0
    1.2126  -21.2982    0.0000 C   0  0  0  0  0  0  0  0  0  0  0  0
    1.5511  -20.3341    0.0000 C   0  0  0  0  0  0  0  0  0  0  0  0
    1.0798  -19.6525    0.0000 C   0  0  0  0  0  0  0  0  0  0  0  0
    0.2526  -19.6513    0.0000 O   0  0  0  0  0  0  0  0  0  0  0  0
   -0.0118  -18.4734    0.0000 C   0  0  0  0  0  0  0  0  0  0  0  0
   -0.2593  -19.0020    0.0000 C   0  0  2  0  0  0  0  0  0  0  0  0
    1.4644  -18.9267    0.0000 O   0  0  0  0  0  0  0  0  0  0  0  0
   -1.1251  -18.4722    0.0000 H   0  0  0  0  0  0  0  0  0  0  0  0
    0.2876  -18.1465    0.0000 C   0  0  0  0  0  0  0  0  0  0  0  0
    0.2907  -19.0020    0.0000 O   0  0  0  0  0  0  0  0  0  0  0  0
   -1.1377  -19.8269    0.0000 C   0  0  0  0  0  0  0  0  0  0  0  0
   -3.2790  -17.7665    0.0000 C   0  0  2  0  0  0  0  0  0  0  0  0
   -2.5609  -17.3536    0.0000 C   0  0  1  0  0  0  0  0  0  0  0  0
   -3.2774  -16.9382    0.0000 O   0  0  0  0  0  0  0  0  0  0  0  0
   -2.0594  -16.4884    0.0000 H   0  0  0  0  0  0  0  0  0  0  0  0
   -4.5860  -21.2041    0.0000 C   0  0  0  0  0  0  0  0  0  0  0  0
   -5.3041  -21.6101    0.0000 C   0  0  0  0  0  0  0  0  0  0  0  0
   -4.5785  -20.3791    0.0000 O   0  0  0  0  0  0  0  0  0  0  0  0
    0.7341  -18.8874    0.0000 H   0  0  0  0  0  0  0  0  0  0  0  0
  4  5  1  0  0  0  0
  5  6  1  0  0  0  0
  6  7  1  0  0  0  0
  7  8  1  0  0  0  0
 37  9  1  6  0  0  0
  3 10  1  6  0  0  0
  4 11  1  6  0  0  0
 11 12  1  0  0  0  0
 12 13  1  0  0  0  0
 13 14  1  0  0  0  0
 13 15  2  0  0  0  0
 14 16  1  6  0  0  0
 14 17  1  0  0  0  0
 17 18  1  0  0  0  0
 18 19  1  0  0  0  0
 19 20  1  0  0  0  0
 17 21  1  6  0  0  0
 20 22  1  0  0  0  0
 22 23  1  0  0  0  0
 22 24  2  0  0  0  0
 23 25  2  0  0  0  0
 25 26  1  0  0  0  0
 26 27  2  0  0  0  0
 27 28  1  0  0  0  0
 28 29  1  0  0  0  0
  5 31  1  0  0  0  0
  7 30  1  0  0  0  0
 31 30  1  0  0  0  0
 31 29  1  0  0  0  0
 28 32  2  0  0  0  0
  7 33  1  1  0  0  0
  6 34  1  1  0  0  0
  6 35  1  0  0  0  0
 34 35  1  0  0  0  0
  5 36  1  1  0  0  0
 38 37  1  0  0  0  0
 39 38  1  0  0  0  0
 37 39  1  0  0  0  0
 37  1  1  0  0  0  0
  1  2  1  0  0  0  0
  2  4  1  0  0  0  0
 38 40  1  6  0  0  0
  3 38  1  0  0  0  0
 16 41  1  0  0  0  0
  3  4  1  0  0  0  0
 41 42  1  0  0  0  0
  3  8  1  0  0  0  0
 41 43  2  0  0  0  0
 31 44  1  6  0  0  0
M  END
>  <Mol Weight>
560.5895

>  <Formula>
C29H36O11

>  <chembl_id>
CHEMBL1079027

$$$$

  Mrv0541 06201412482D          

 38 42  0  0  0  0            999 V2000
   10.5450   -7.4934    0.0000 C   0  0  0  0  0  0  0  0  0  0  0  0
   10.9512   -8.2066    0.0000 O   0  0  0  0  0  0  0  0  0  0  0  0
   11.7721   -8.2115    0.0000 C   0  0  0  0  0  0  0  0  0  0  0  0
   12.1794   -8.9241    0.0000 C   0  0  0  0  0  0  0  0  0  0  0  0
   13.0002   -8.9325    0.0000 C   0  0  0  0  0  0  0  0  0  0  0  0
   13.4180   -8.2210    0.0000 C   0  0  0  0  0  0  0  0  0  0  0  0
   14.2388   -8.2294    0.0000 Cl  0  0  0  0  0  0  0  0  0  0  0  0
   13.0149   -7.5010    0.0000 C   0  0  0  0  0  0  0  0  0  0  0  0
   12.1899   -7.4999    0.0000 C   0  0  0  0  0  0  0  0  0  0  0  0
   11.7825   -6.7872    0.0000 N   0  0  0  0  0  0  0  0  0  0  0  0
   12.1940   -6.0723    0.0000 C   0  0  0  0  0  0  0  0  0  0  0  0
   11.7846   -5.3560    0.0000 C   0  0  0  0  0  0  0  0  0  0  0  0
   10.9637   -5.3547    0.0000 N   0  0  0  0  0  0  0  0  0  0  0  0
   10.5564   -4.6420    0.0000 C   0  0  0  0  0  0  0  0  0  0  0  0
    9.7355   -4.6385    0.0000 C   0  0  0  0  0  0  0  0  0  0  0  0
    9.3282   -3.9258    0.0000 C   0  0  0  0  0  0  0  0  0  0  0  0
    8.5073   -3.9222    0.0000 N   0  0  0  0  0  0  0  0  0  0  0  0
    8.1000   -3.2096    0.0000 C   0  0  0  0  0  0  0  0  0  0  0  0
    8.5135   -2.5005    0.0000 O   0  0  0  0  0  0  0  0  0  0  0  0
    7.2792   -3.2060    0.0000 C   0  0  0  0  0  0  0  0  0  0  0  0
    6.8656   -3.9200    0.0000 C   0  0  0  0  0  0  0  0  0  0  0  0
    6.0448   -3.9164    0.0000 C   0  0  0  0  0  0  0  0  0  0  0  0
    5.6333   -3.2062    0.0000 C   0  0  0  0  0  0  0  0  0  0  0  0
    6.0468   -2.4922    0.0000 C   0  0  0  0  0  0  0  0  0  0  0  0
    6.8718   -2.4885    0.0000 C   0  0  0  0  0  0  0  0  0  0  0  0
    4.8124   -3.2062    0.0000 C   0  0  0  0  0  0  0  0  0  0  0  0
    4.3265   -2.5376    0.0000 N   0  0  0  0  0  0  0  0  0  0  0  0
    3.5403   -2.7929    0.0000 C   0  0  0  0  0  0  0  0  0  0  0  0
    2.8278   -2.3760    0.0000 C   0  0  0  0  0  0  0  0  0  0  0  0
    2.1153   -2.7929    0.0000 C   0  0  0  0  0  0  0  0  0  0  0  0
    1.4032   -2.3845    0.0000 Cl  0  0  0  0  0  0  0  0  0  0  0  0
    2.1153   -3.6185    0.0000 C   0  0  0  0  0  0  0  0  0  0  0  0
    1.4049   -4.0299    0.0000 F   0  0  0  0  0  0  0  0  0  0  0  0
    2.8278   -4.0272    0.0000 C   0  0  0  0  0  0  0  0  0  0  0  0
    3.5403   -3.6195    0.0000 C   0  0  0  0  0  0  0  0  0  0  0  0
    4.3265   -3.8751    0.0000 N   0  0  0  0  0  0  0  0  0  0  0  0
   10.5483   -6.0626    0.0000 C   0  0  0  0  0  0  0  0  0  0  0  0
   10.9576   -6.7789    0.0000 C   0  0  0  0  0  0  0  0  0  0  0  0
  1  2  1  0  0  0  0
  2  3  1  0  0  0  0
  3  9  2  0  0  0  0
  3  4  1  0  0  0  0
  4  5  2  0  0  0  0
  5  6  1  0  0  0  0
  6  7  1  0  0  0  0
  6  8  2  0  0  0  0
  8  9  1  0  0  0  0
  9 10  1  0  0  0  0
 10 38  1  0  0  0  0
 10 11  1  0  0  0  0
 11 12  1  0  0  0  0
 12 13  1  0  0  0  0
 13 14  1  0  0  0  0
 14 15  1  0  0  0  0
 15 16  1  0  0  0  0
 16 17  1  0  0  0  0
 17 18  1  0  0  0  0
 18 19  2  0  0  0  0
 18 20  1  0  0  0  0
 20 25  2  0  0  0  0
 20 21  1  0  0  0  0
 21 22  2  0  0  0  0
 22 23  1  0  0  0  0
 23 24  2  0  0  0  0
 24 25  1  0  0  0  0
 23 26  1  0  0  0  0
 26 36  1  0  0  0  0
 26 27  2  0  0  0  0
 27 28  1  0  0  0  0
 28 35  2  0  0  0  0
 28 29  1  0  0  0  0
 29 30  2  0  0  0  0
 30 31  1  0  0  0  0
 30 32  1  0  0  0  0
 32 33  1  0  0  0  0
 32 34  2  0  0  0  0
 34 35  1  0  0  0  0
 35 36  1  0  0  0  0
 13 37  1  0  0  0  0
 37 38  1  0  0  0  0
M  END
>  <Mol Weight>
556.459

>  <Formula>
C28H28Cl2FN5O2

>  <chembl_id>
CHEMBL533122

$$$$

  Mrv0541 06201412482D          

 42 46  0  0  0  0            999 V2000
    3.7469  -18.5173    0.0000 C   0  0  0  0  0  0  0  0  0  0  0  0
    3.0174  -18.9063    0.0000 C   0  0  0  0  0  0  0  0  0  0  0  0
    2.9902  -19.7312    0.0000 C   0  0  0  0  0  0  0  0  0  0  0  0
    3.6918  -20.1670    0.0000 C   0  0  0  0  0  0  0  0  0  0  0  0
    4.4494  -18.9537    0.0000 C   0  0  0  0  0  0  0  0  0  0  0  0
    4.4168  -19.7803    0.0000 C   0  0  0  0  0  0  0  0  0  0  0  0
    5.1959  -20.0632    0.0000 C   0  0  0  0  0  0  0  0  0  0  0  0
    5.7027  -19.4136    0.0000 C   0  0  0  0  0  0  0  0  0  0  0  0
    5.2389  -18.7280    0.0000 O   0  0  0  0  0  0  0  0  0  0  0  0
    6.5293  -19.4409    0.0000 C   0  0  0  0  0  0  0  0  0  0  0  0
    1.5603  -19.6859    0.0000 C   0  0  0  0  0  0  0  0  0  0  0  0
    1.5875  -18.8591    0.0000 N   0  0  0  0  0  0  0  0  0  0  0  0
    0.8329  -20.0737    0.0000 N   0  0  0  0  0  0  0  0  0  0  0  0
    0.9648  -18.3192    0.0000 C   0  0  2  0  0  0  0  0  0  0  0  0
    0.2075  -18.6466    0.0000 C   0  0  0  0  0  0  0  0  0  0  0  0
   -0.5133  -18.2674    0.0000 N   0  0  0  0  0  0  0  0  0  0  0  0
    1.1703  -17.5329    0.0000 C   0  0  0  0  0  0  0  0  0  0  0  0
   -0.6699  -17.4448    0.0000 C   0  0  0  0  0  0  0  0  0  0  0  0
    0.7061  -16.8454    0.0000 C   0  0  0  0  0  0  0  0  0  0  0  0
   -0.1300  -16.8220    0.0000 C   0  0  0  0  0  0  0  0  0  0  0  0
    0.1740  -19.4684    0.0000 O   0  0  0  0  0  0  0  0  0  0  0  0
   -1.1969  -18.7325    0.0000 C   0  0  0  0  0  0  0  0  0  0  0  0
   -1.9448  -18.4102    0.0000 C   0  0  0  0  0  0  0  0  0  0  0  0
   -2.6275  -18.8711    0.0000 N   0  0  0  0  0  0  0  0  0  0  0  0
   -2.0332  -17.5900    0.0000 O   0  0  0  0  0  0  0  0  0  0  0  0
   -3.4041  -18.5896    0.0000 C   0  0  0  0  0  0  0  0  0  0  0  0
   -3.9124  -19.2417    0.0000 C   0  0  0  0  0  0  0  0  0  0  0  0
   -3.4514  -19.9243    0.0000 C   0  0  0  0  0  0  0  0  0  0  0  0
   -2.6567  -19.6966    0.0000 C   0  0  0  0  0  0  0  0  0  0  0  0
    0.8051  -20.8962    0.0000 C   0  0  0  0  0  0  0  0  0  0  0  0
    0.0789  -21.2833    0.0000 O   0  0  0  0  0  0  0  0  0  0  0  0
    1.5036  -21.3315    0.0000 C   0  0  0  0  0  0  0  0  0  0  0  0
    1.4723  -22.1516    0.0000 N   0  0  0  0  0  0  0  0  0  0  0  0
    2.1698  -22.5867    0.0000 C   0  0  0  0  0  0  0  0  0  0  0  0
    2.8971  -22.1995    0.0000 C   0  0  0  0  0  0  0  0  0  0  0  0
    2.9223  -21.3727    0.0000 C   0  0  0  0  0  0  0  0  0  0  0  0
    2.2240  -20.9411    0.0000 C   0  0  0  0  0  0  0  0  0  0  0  0
    3.5974  -22.6338    0.0000 C   0  0  0  0  0  0  0  0  0  0  0  0
    3.5708  -23.4564    0.0000 O   0  0  0  0  0  0  0  0  0  0  0  0
    4.3229  -22.2452    0.0000 O   0  0  0  0  0  0  0  0  0  0  0  0
    5.0222  -22.6793    0.0000 C   0  0  0  0  0  0  0  0  0  0  0  0
    2.2622  -20.1194    0.0000 N   0  0  0  0  0  0  0  0  0  0  0  0
 11 12  1  0  0  0  0
 11 13  2  0  0  0  0
 14 12  1  6  0  0  0
 14 15  1  0  0  0  0
 15 16  1  0  0  0  0
 14 17  1  0  0  0  0
 16 18  1  0  0  0  0
 17 19  1  0  0  0  0
 18 20  1  0  0  0  0
 19 20  1  0  0  0  0
 15 21  2  0  0  0  0
 16 22  1  0  0  0  0
 22 23  1  0  0  0  0
 23 24  1  0  0  0  0
 23 25  2  0  0  0  0
 24 26  1  0  0  0  0
 26 27  1  0  0  0  0
 27 28  1  0  0  0  0
 28 29  1  0  0  0  0
 29 24  1  0  0  0  0
 13 30  1  0  0  0  0
  5  1  1  0  0  0  0
 30 31  2  0  0  0  0
  1  2  2  0  0  0  0
 30 32  1  0  0  0  0
  2  3  1  0  0  0  0
 32 33  2  0  0  0  0
  3  4  2  0  0  0  0
 33 34  1  0  0  0  0
  4  6  1  0  0  0  0
 34 35  2  0  0  0  0
  5  6  2  0  0  0  0
 35 36  1  0  0  0  0
  6  7  1  0  0  0  0
 36 37  2  0  0  0  0
 37 32  1  0  0  0  0
  7  8  2  0  0  0  0
  8  9  1  0  0  0  0
 38 39  2  0  0  0  0
 35 38  1  0  0  0  0
  9  5  1  0  0  0  0
 38 40  1  0  0  0  0
  8 10  1  0  0  0  0
 40 41  1  0  0  0  0
 42 11  1  0  0  0  0
  3 42  1  0  0  0  0
M  END
>  <Mol Weight>
574.6276

>  <Formula>
C30H34N6O6

>  <chembl_id>
CHEMBL577964

$$$$

  Mrv0541 06201412482D          

 42 43  0  0  0  0            999 V2000
    8.0375    0.1708    0.0000 N   0  0  0  0  0  0  0  0  0  0  0  0
    8.7500   -0.2417    0.0000 C   0  0  0  0  0  0  0  0  0  0  0  0
    7.3167   -0.2417    0.0000 C   0  0  0  0  0  0  0  0  0  0  0  0
    9.4625    0.1708    0.0000 C   0  0  0  0  0  0  0  0  0  0  0  0
   10.1750   -0.2375    0.0000 N   0  0  0  0  0  0  0  0  0  0  0  0
   -0.5375    0.1458    0.0000 C   0  0  0  0  0  0  0  0  0  0  0  0
   -1.2500   -0.2750    0.0000 C   0  0  0  0  0  0  0  0  0  0  0  0
    0.1792   -0.2667    0.0000 C   0  0  0  0  0  0  0  0  0  0  0  0
   10.8917    0.1750    0.0000 C   0  0  0  0  0  0  0  0  0  0  0  0
   13.7417    0.1750    0.0000 C   0  0  0  0  0  0  0  0  0  0  0  0
   -1.2500   -1.1000    0.0000 C   0  0  0  0  0  0  0  0  0  0  0  0
    8.7542   -1.0667    0.0000 O   0  0  0  0  0  0  0  0  0  0  0  0
    7.3250   -1.0667    0.0000 O   0  0  0  0  0  0  0  0  0  0  0  0
    9.4542    0.9958    0.0000 C   0  0  0  0  0  0  0  0  0  0  0  0
    0.1792   -1.1000    0.0000 C   0  0  0  0  0  0  0  0  0  0  0  0
    2.3167    0.1500    0.0000 N   0  0  0  0  0  0  0  0  0  0  0  0
   10.8875    1.0000    0.0000 O   0  0  0  0  0  0  0  0  0  0  0  0
   13.7417    0.9958    0.0000 O   0  0  0  0  0  0  0  0  0  0  0  0
   -0.5375   -1.5125    0.0000 C   0  0  0  0  0  0  0  0  0  0  0  0
    1.6042   -0.2625    0.0000 C   0  0  0  0  0  0  0  0  0  0  0  0
    6.6042    0.1708    0.0000 N   0  0  0  0  0  0  0  0  0  0  0  0
    0.8917    0.1458    0.0000 C   0  0  0  0  0  0  0  0  0  0  0  0
   12.3167    0.1833    0.0000 N   0  0  0  0  0  0  0  0  0  0  0  0
   14.4542   -0.2292    0.0000 N   0  0  0  0  0  0  0  0  0  0  0  0
   -1.9708    0.1375    0.0000 O   0  0  0  0  0  0  0  0  0  0  0  0
    9.8667    1.7208    0.0000 C   0  0  0  0  0  0  0  0  0  0  0  0
   -1.9708   -1.5125    0.0000 O   0  0  0  0  0  0  0  0  0  0  0  0
   11.6042   -0.2292    0.0000 C   0  0  0  0  0  0  0  0  0  0  0  0
   13.0292   -0.2292    0.0000 C   0  0  0  0  0  0  0  0  0  0  0  0
    0.8875    0.9708    0.0000 O   0  0  0  0  0  0  0  0  0  0  0  0
    3.0375   -0.2542    0.0000 C   0  0  0  0  0  0  0  0  0  0  0  0
    5.8917   -0.2417    0.0000 C   0  0  0  0  0  0  0  0  0  0  0  0
   14.4500   -1.0500    0.0000 C   0  0  0  0  0  0  0  0  0  0  0  0
   10.6917    1.7208    0.0000 C   0  0  0  0  0  0  0  0  0  0  0  0
    9.4417    2.4250    0.0000 C   0  0  0  0  0  0  0  0  0  0  0  0
    3.7500    0.1583    0.0000 C   0  0  0  0  0  0  0  0  0  0  0  0
    5.1792    0.1625    0.0000 C   0  0  0  0  0  0  0  0  0  0  0  0
    3.0375   -1.0792    0.0000 C   0  0  0  0  0  0  0  0  0  0  0  0
    4.4667   -0.2542    0.0000 C   0  0  0  0  0  0  0  0  0  0  0  0
    9.8500    3.1458    0.0000 C   0  0  0  0  0  0  0  0  0  0  0  0
   11.1000    2.4458    0.0000 C   0  0  0  0  0  0  0  0  0  0  0  0
   10.6792    3.1583    0.0000 C   0  0  0  0  0  0  0  0  0  0  0  0
  2  1  1  0  0  0  0
  3  1  1  0  0  0  0
  4  2  1  0  0  0  0
  5  4  1  0  0  0  0
  6  8  2  0  0  0  0
  7  6  1  0  0  0  0
  8 22  1  0  0  0  0
  9  5  1  0  0  0  0
 10 29  1  0  0  0  0
 11 19  1  0  0  0  0
 12  2  2  0  0  0  0
 13  3  2  0  0  0  0
 14  4  1  0  0  0  0
 15  8  1  0  0  0  0
 16 31  1  0  0  0  0
 17  9  2  0  0  0  0
 18 10  2  0  0  0  0
 19 15  2  0  0  0  0
 20 16  1  0  0  0  0
 21  3  1  0  0  0  0
 22 20  1  0  0  0  0
 23 28  1  0  0  0  0
 24 10  1  0  0  0  0
 25  7  1  0  0  0  0
 26 14  1  0  0  0  0
 27 11  1  0  0  0  0
 28  9  1  0  0  0  0
 29 23  1  0  0  0  0
 30 22  1  0  0  0  0
 31 36  1  0  0  0  0
 32 21  1  0  0  0  0
 33 24  1  0  0  0  0
 34 26  2  0  0  0  0
 35 26  1  0  0  0  0
 36 39  1  0  0  0  0
 37 32  1  0  0  0  0
 38 31  1  0  0  0  0
 39 37  1  0  0  0  0
 40 35  2  0  0  0  0
 41 34  1  0  0  0  0
 42 40  1  0  0  0  0
 42 41  2  0  0  0  0
 11  7  2  0  0  0  0
M  END
>  <Mol Weight>
586.6798

>  <Formula>
C29H42N6O7

>  <chembl_id>
CHEMBL157236

$$$$

  Mrv0541 06201412482D          

 43 48  0  0  0  0            999 V2000
   12.8260   -2.7918    0.0000 C   0  0  0  0  0  0  0  0  0  0  0  0
   14.9691   -4.0384    0.0000 C   0  0  0  0  0  0  0  0  0  0  0  0
   14.9680   -4.8660    0.0000 C   0  0  0  0  0  0  0  0  0  0  0  0
   15.6830   -5.2792    0.0000 C   0  0  0  0  0  0  0  0  0  0  0  0
   15.6811   -3.6256    0.0000 C   0  0  0  0  0  0  0  0  0  0  0  0
   16.3967   -4.0347    0.0000 C   0  0  0  0  0  0  0  0  0  0  0  0
   16.3969   -4.8661    0.0000 C   0  0  0  0  0  0  0  0  0  0  0  0
   17.1877   -5.1227    0.0000 N   0  0  0  0  0  0  0  0  0  0  0  0
   17.6760   -4.4502    0.0000 C   0  0  0  0  0  0  0  0  0  0  0  0
   17.1873   -3.7777    0.0000 N   0  0  0  0  0  0  0  0  0  0  0  0
   15.6832   -6.1042    0.0000 C   0  0  0  0  0  0  0  0  0  0  0  0
   14.2543   -3.6260    0.0000 N   0  0  0  0  0  0  0  0  0  0  0  0
   14.2522   -2.7953    0.0000 C   0  0  0  0  0  0  0  0  0  0  0  0
   13.5418   -2.3831    0.0000 C   0  0  0  0  0  0  0  0  0  0  0  0
   12.8229   -3.6185    0.0000 C   0  0  0  0  0  0  0  0  0  0  0  0
   13.5382   -4.0353    0.0000 C   0  0  0  0  0  0  0  0  0  0  0  0
   18.4981   -4.4484    0.0000 C   0  0  0  0  0  0  0  0  0  0  0  0
   18.9102   -5.1644    0.0000 C   0  0  0  0  0  0  0  0  0  0  0  0
   19.7347   -5.1645    0.0000 C   0  0  0  0  0  0  0  0  0  0  0  0
   20.1478   -4.4493    0.0000 C   0  0  0  0  0  0  0  0  0  0  0  0
   19.7306   -3.7323    0.0000 N   0  0  0  0  0  0  0  0  0  0  0  0
   18.9075   -3.7358    0.0000 C   0  0  0  0  0  0  0  0  0  0  0  0
   18.4927   -3.0226    0.0000 O   0  0  0  0  0  0  0  0  0  0  0  0
   18.4972   -5.8789    0.0000 N   0  0  0  0  0  0  0  0  0  0  0  0
   18.9092   -6.5940    0.0000 C   0  0  0  0  0  0  0  0  0  0  0  0
   18.4962   -7.3081    0.0000 C   0  0  0  0  0  0  0  0  0  0  0  0
   18.9096   -8.0201    0.0000 C   0  0  0  0  0  0  0  0  0  0  0  0
   18.5784   -8.7730    0.0000 N   0  0  0  0  0  0  0  0  0  0  0  0
   19.1917   -9.3221    0.0000 C   0  0  0  0  0  0  0  0  0  0  0  0
   19.9034   -8.9087    0.0000 N   0  0  0  0  0  0  0  0  0  0  0  0
   19.7301   -8.1039    0.0000 C   0  0  0  0  0  0  0  0  0  0  0  0
   20.6583   -9.2422    0.0000 C   0  0  0  0  0  0  0  0  0  0  0  0
   20.2804   -7.4890    0.0000 Cl  0  0  0  0  0  0  0  0  0  0  0  0
   12.1148   -2.3770    0.0000 N   0  0  0  0  0  0  0  0  0  0  0  0
   12.1203   -1.5507    0.0000 C   0  0  0  0  0  0  0  0  0  0  0  0
   11.4117   -1.1353    0.0000 C   0  0  0  0  0  0  0  0  0  0  0  0
   10.6927   -1.5413    0.0000 N   0  0  0  0  0  0  0  0  0  0  0  0
   10.6873   -2.3675    0.0000 C   0  0  0  0  0  0  0  0  0  0  0  0
   11.4007   -2.7875    0.0000 C   0  0  0  0  0  0  0  0  0  0  0  0
    9.9788   -1.1229    0.0000 C   0  0  0  0  0  0  0  0  0  0  0  0
    9.9854   -0.2976    0.0000 O   0  0  0  0  0  0  0  0  0  0  0  0
    9.2608   -1.5297    0.0000 O   0  0  0  0  0  0  0  0  0  0  0  0
    8.5493   -1.1115    0.0000 C   0  0  0  0  0  0  0  0  0  0  0  0
 20 21  1  0  0  0  0
  5  2  1  0  0  0  0
 21 22  1  0  0  0  0
 22 17  1  0  0  0  0
  9 17  1  0  0  0  0
  4 11  1  0  0  0  0
 22 23  2  0  0  0  0
  6  7  1  0  0  0  0
 18 24  1  0  0  0  0
  2 12  1  0  0  0  0
 24 25  1  0  0  0  0
 12 13  1  0  0  0  0
 25 26  1  0  0  0  0
 26 27  1  0  0  0  0
 27 28  1  0  0  0  0
  3  4  1  0  0  0  0
  4  7  2  0  0  0  0
  2  3  2  0  0  0  0
 12 16  1  0  0  0  0
 28 29  2  0  0  0  0
 29 30  1  0  0  0  0
 30 31  1  0  0  0  0
 31 27  2  0  0  0  0
 13 14  1  0  0  0  0
 30 32  1  0  0  0  0
 14  1  1  0  0  0  0
 31 33  1  0  0  0  0
 34 35  1  0  0  0  0
  1 15  1  0  0  0  0
 15 16  1  0  0  0  0
  6  5  2  0  0  0  0
  7  8  1  0  0  0  0
 17 18  2  0  0  0  0
  8  9  2  0  0  0  0
 34 39  1  0  0  0  0
 35 36  1  0  0  0  0
 36 37  1  0  0  0  0
 37 38  1  0  0  0  0
 38 39  1  0  0  0  0
  1 34  1  0  0  0  0
 18 19  1  0  0  0  0
  9 10  1  0  0  0  0
 19 20  2  0  0  0  0
 40 41  2  0  0  0  0
 40 42  1  0  0  0  0
 37 40  1  0  0  0  0
 10  6  1  0  0  0  0
 42 43  1  0  0  0  0
M  END
>  <Mol Weight>
608.134

>  <Formula>
C30H38ClN9O3

>  <chembl_id>
CHEMBL1077343

$$$$

  Mrv0541 06201412482D          

 44 49  0  0  0  0            999 V2000
   11.1244   -5.0788    0.0000 C   0  0  0  0  0  0  0  0  0  0  0  0
   10.7413   -5.8147    0.0000 C   0  0  0  0  0  0  0  0  0  0  0  0
   11.1846   -6.5105    0.0000 C   0  0  0  0  0  0  0  0  0  0  0  0
   12.0129   -6.4767    0.0000 C   0  0  0  0  0  0  0  0  0  0  0  0
   12.3959   -5.7408    0.0000 N   0  0  0  0  0  0  0  0  0  0  0  0
   11.9507   -5.0388    0.0000 C   0  0  0  0  0  0  0  0  0  0  0  0
   13.2163   -5.7033    0.0000 C   0  0  0  0  0  0  0  0  0  0  0  0
   13.6576   -6.4014    0.0000 C   0  0  0  0  0  0  0  0  0  0  0  0
   14.4784   -6.3684    0.0000 C   0  0  0  0  0  0  0  0  0  0  0  0
   14.8639   -5.6387    0.0000 N   0  0  0  0  0  0  0  0  0  0  0  0
   14.4226   -4.9406    0.0000 C   0  0  0  0  0  0  0  0  0  0  0  0
   13.5955   -4.9721    0.0000 C   0  0  0  0  0  0  0  0  0  0  0  0
   12.7964   -4.9865    0.0000 C   0  0  0  0  0  0  0  0  0  0  0  0
    9.9171   -5.8507    0.0000 N   0  0  0  0  0  0  0  0  0  0  0  0
    9.4031   -5.2102    0.0000 C   0  0  1  0  0  0  0  0  0  0  0  0
    8.6312   -5.4983    0.0000 C   0  0  0  0  0  0  0  0  0  0  0  0
    8.6669   -6.3225    0.0000 N   0  0  0  0  0  0  0  0  0  0  0  0
    9.4621   -6.5428    0.0000 C   0  0  0  0  0  0  0  0  0  0  0  0
    9.8185   -4.4976    0.0000 C   0  0  0  0  0  0  0  0  0  0  0  0
   10.6446   -4.5028    0.0000 C   0  0  0  0  0  0  0  0  0  0  0  0
   11.0602   -3.7910    0.0000 C   0  0  0  0  0  0  0  0  0  0  0  0
   10.6509   -3.0737    0.0000 C   0  0  0  0  0  0  0  0  0  0  0  0
    9.8217   -3.0726    0.0000 C   0  0  0  0  0  0  0  0  0  0  0  0
    9.4098   -3.7849    0.0000 C   0  0  0  0  0  0  0  0  0  0  0  0
    9.7523   -7.3151    0.0000 O   0  0  0  0  0  0  0  0  0  0  0  0
   15.6884   -5.6067    0.0000 C   0  0  0  0  0  0  0  0  0  0  0  0
   16.1282   -6.3046    0.0000 C   0  0  0  0  0  0  0  0  0  0  0  0
   16.0728   -4.8768    0.0000 O   0  0  0  0  0  0  0  0  0  0  0  0
    7.9500   -6.7310    0.0000 C   0  0  0  0  0  0  0  0  0  0  0  0
   15.7422   -7.0322    0.0000 C   0  0  0  0  0  0  0  0  0  0  0  0
   16.1814   -7.7296    0.0000 C   0  0  0  0  0  0  0  0  0  0  0  0
   17.0066   -7.6980    0.0000 C   0  0  0  0  0  0  0  0  0  0  0  0
   17.3907   -6.9631    0.0000 N   0  0  0  0  0  0  0  0  0  0  0  0
   16.9493   -6.2687    0.0000 C   0  0  0  0  0  0  0  0  0  0  0  0
   17.3304   -5.5371    0.0000 C   0  0  0  0  0  0  0  0  0  0  0  0
   14.9177   -7.0628    0.0000 C   0  0  0  0  0  0  0  0  0  0  0  0
    7.9454   -7.5559    0.0000 C   0  0  0  0  0  0  0  0  0  0  0  0
    7.2302   -7.9635    0.0000 C   0  0  0  0  0  0  0  0  0  0  0  0
    7.2236   -8.7849    0.0000 C   0  0  0  0  0  0  0  0  0  0  0  0
    7.9338   -9.2052    0.0000 O   0  0  0  0  0  0  0  0  0  0  0  0
    8.6523   -8.7980    0.0000 C   0  0  0  0  0  0  0  0  0  0  0  0
    8.6607   -7.9705    0.0000 C   0  0  0  0  0  0  0  0  0  0  0  0
   17.4475   -8.3954    0.0000 C   0  0  0  0  0  0  0  0  0  0  0  0
   17.8873   -9.0975    0.0000 N   0  0  0  0  0  0  0  0  0  0  0  0
  8  9  1  0  0  0  0
 21 22  2  0  0  0  0
  9 10  1  0  0  0  0
 22 23  1  0  0  0  0
 10 11  1  0  0  0  0
 23 24  2  0  0  0  0
 24 19  1  0  0  0  0
 15 19  1  1  0  0  0
 11 12  1  0  0  0  0
 18 25  2  0  0  0  0
  5  7  1  0  0  0  0
 10 26  1  0  0  0  0
  5  6  1  0  0  0  0
 26 27  1  0  0  0  0
  7 13  1  0  0  0  0
 26 28  2  0  0  0  0
  7  8  1  0  0  0  0
 17 29  1  0  0  0  0
  2 14  1  0  0  0  0
 27 30  2  0  0  0  0
 14 15  1  0  0  0  0
 30 31  1  0  0  0  0
 31 32  2  0  0  0  0
  1  2  1  0  0  0  0
 32 33  1  0  0  0  0
  1  6  1  0  0  0  0
 33 34  2  0  0  0  0
 34 27  1  0  0  0  0
  2  3  1  0  0  0  0
 34 35  1  0  0  0  0
 15 16  1  0  0  0  0
 30 36  1  0  0  0  0
 16 17  1  0  0  0  0
 29 37  1  0  0  0  0
 37 38  1  0  0  0  0
 17 18  1  0  0  0  0
 18 14  1  0  0  0  0
  3  4  1  0  0  0  0
  4  5  1  0  0  0  0
 19 20  2  0  0  0  0
 37 42  1  0  0  0  0
 38 39  1  0  0  0  0
 39 40  1  0  0  0  0
 40 41  1  0  0  0  0
 41 42  1  0  0  0  0
  7 12  1  0  0  0  0
 32 43  1  0  0  0  0
 20 21  1  0  0  0  0
 43 44  3  0  0  0  0
M  END
>  <Mol Weight>
598.7781

>  <Formula>
C35H46N6O3

>  <chembl_id>
CHEMBL1085225

$$$$

  Mrv0541 06201412482D          

 46 51  0  0  0  0            999 V2000
   11.4667   -9.0042    0.0000 C   0  0  1  0  0  0  0  0  0  0  0  0
   10.7542   -9.4083    0.0000 C   0  0  1  0  0  0  0  0  0  0  0  0
    9.3292   -9.4042    0.0000 C   0  0  2  0  0  0  0  0  0  0  0  0
   12.9083   -8.1958    0.0000 C   0  0  1  0  0  0  0  0  0  0  0  0
   12.1958   -7.7708    0.0000 C   0  0  1  0  0  0  0  0  0  0  0  0
   11.4792   -8.1792    0.0000 C   0  0  1  0  0  0  0  0  0  0  0  0
   10.0417   -8.9833    0.0000 C   0  0  1  0  0  0  0  0  0  0  0  0
    9.3208  -10.2292    0.0000 C   0  0  2  0  0  0  0  0  0  0  0  0
    8.6083  -10.6417    0.0000 C   0  0  0  0  0  0  0  0  0  0  0  0
   12.3833   -6.9708    0.0000 C   0  0  1  0  0  0  0  0  0  0  0  0
   13.6167   -8.6083    0.0000 C   0  0  0  0  0  0  0  0  0  0  0  0
   12.1708   -9.4208    0.0000 C   0  0  0  0  0  0  0  0  0  0  0  0
   10.7542  -10.2333    0.0000 C   0  0  0  0  0  0  0  0  0  0  0  0
   12.8958   -9.0292    0.0000 C   0  0  0  0  0  0  0  0  0  0  0  0
   13.5292   -7.6583    0.0000 C   0  0  0  0  0  0  0  0  0  0  0  0
   10.7667   -7.7583    0.0000 C   0  0  0  0  0  0  0  0  0  0  0  0
    8.6083   -8.9833    0.0000 C   0  0  0  0  0  0  0  0  0  0  0  0
   10.0458   -8.1583    0.0000 C   0  0  0  0  0  0  0  0  0  0  0  0
   10.0333  -10.6417    0.0000 C   0  0  0  0  0  0  0  0  0  0  0  0
   13.2083   -6.8958    0.0000 C   0  0  0  0  0  0  0  0  0  0  0  0
   11.8458   -6.3458    0.0000 C   0  0  0  0  0  0  0  0  0  0  0  0
    7.8958  -10.2292    0.0000 C   0  0  2  0  0  0  0  0  0  0  0  0
   13.6167   -9.4292    0.0000 O   0  0  0  0  0  0  0  0  0  0  0  0
    7.8958   -9.4042    0.0000 C   0  0  0  0  0  0  0  0  0  0  0  0
   12.1083   -5.5708    0.0000 C   0  0  0  0  0  0  0  0  0  0  0  0
   11.4583   -9.8208    0.0000 C   0  0  0  0  0  0  0  0  0  0  0  0
   14.3292   -8.1958    0.0000 O   0  0  0  0  0  0  0  0  0  0  0  0
   10.7458   -8.5833    0.0000 C   0  0  0  0  0  0  0  0  0  0  0  0
    9.3208   -8.5792    0.0000 C   0  0  0  0  0  0  0  0  0  0  0  0
    8.1917  -11.3458    0.0000 C   0  0  0  0  0  0  0  0  0  0  0  0
    8.8167  -11.4333    0.0000 C   0  0  0  0  0  0  0  0  0  0  0  0
    7.1833  -10.6417    0.0000 O   0  0  0  0  0  0  0  0  0  0  0  0
   11.0333   -6.5042    0.0000 C   0  0  0  0  0  0  0  0  0  0  0  0
   10.0333   -9.8083    0.0000 H   0  0  0  0  0  0  0  0  0  0  0  0
   11.4708   -7.3542    0.0000 H   0  0  0  0  0  0  0  0  0  0  0  0
   12.1958   -8.5917    0.0000 H   0  0  0  0  0  0  0  0  0  0  0  0
    9.3208  -11.0458    0.0000 H   0  0  0  0  0  0  0  0  0  0  0  0
    6.4684  -10.2300    0.0000 C   0  0  0  0  0  0  0  0  0  0  0  0
    5.7544  -10.6434    0.0000 N   0  0  0  0  0  0  0  0  0  0  0  0
    6.4674   -9.4050    0.0000 O   0  0  0  0  0  0  0  0  0  0  0  0
    5.0394  -10.2317    0.0000 C   0  0  0  0  0  0  0  0  0  0  0  0
    5.0431   -9.4082    0.0000 C   0  0  0  0  0  0  0  0  0  0  0  0
    4.3290   -8.9966    0.0000 C   0  0  0  0  0  0  0  0  0  0  0  0
    3.6141   -9.4101    0.0000 C   0  0  0  0  0  0  0  0  0  0  0  0
    3.6177  -10.2393    0.0000 C   0  0  0  0  0  0  0  0  0  0  0  0
    4.3324  -10.6472    0.0000 C   0  0  0  0  0  0  0  0  0  0  0  0
 10  5  1  0  0  0  0
  4 11  1  1  0  0  0
 12  1  1  0  0  0  0
 13  2  1  0  0  0  0
 14 12  1  0  0  0  0
 15  4  1  0  0  0  0
 16  6  1  0  0  0  0
 17  3  1  0  0  0  0
 18 16  1  0  0  0  0
 19 13  1  0  0  0  0
 20 10  1  0  0  0  0
 10 21  1  6  0  0  0
 22  9  1  0  0  0  0
 23 11  2  0  0  0  0
 24 17  1  0  0  0  0
 25 21  2  0  0  0  0
  1 26  1  6  0  0  0
 27 11  1  0  0  0  0
  2 28  1  1  0  0  0
  3 29  1  1  0  0  0
 30  9  1  0  0  0  0
 31  9  1  0  0  0  0
 22 32  1  1  0  0  0
 33 21  1  0  0  0  0
  7 34  1  6  0  0  0
  6 35  1  1  0  0  0
  5 36  1  6  0  0  0
  8 37  1  6  0  0  0
  5  4  1  0  0  0  0
  7 18  1  0  0  0  0
 15 20  1  0  0  0  0
  3  8  1  0  0  0  0
 24 22  1  0  0  0  0
 32 38  1  0  0  0  0
  2  1  1  0  0  0  0
 38 39  1  0  0  0  0
  3  7  1  0  0  0  0
 38 40  2  0  0  0  0
  4 14  1  0  0  0  0
 39 41  1  0  0  0  0
  5  6  1  0  0  0  0
 41 42  2  0  0  0  0
  6  1  1  0  0  0  0
 42 43  1  0  0  0  0
  7  2  1  0  0  0  0
 43 44  2  0  0  0  0
  8 19  1  0  0  0  0
 44 45  1  0  0  0  0
  9  8  1  0  0  0  0
 45 46  2  0  0  0  0
 46 41  1  0  0  0  0
M  END
>  <Mol Weight>
575.821

>  <Formula>
C37H53NO4

>  <chembl_id>
CHEMBL1085713

$$$$

  Mrv0541 06201412482D          

 42 46  0  0  0  0            999 V2000
   13.4651   -8.6576    0.0000 C   0  0  1  0  0  0  0  0  0  0  0  0
   12.7958   -8.1708    0.0000 O   0  0  0  0  0  0  0  0  0  0  0  0
   12.1266   -8.6576    0.0000 C   0  0  0  0  0  0  0  0  0  0  0  0
   13.2041   -9.4417    0.0000 C   0  0  2  0  0  0  0  0  0  0  0  0
   12.3791   -9.4417    0.0000 C   0  0  1  0  0  0  0  0  0  0  0  0
   12.1242  -10.2263    0.0000 C   0  0  2  0  0  0  0  0  0  0  0  0
   12.7958  -10.7113    0.0000 O   0  0  0  0  0  0  0  0  0  0  0  0
   13.4632  -10.2263    0.0000 C   0  0  0  0  0  0  0  0  0  0  0  0
   11.5500   -9.4375    0.0000 H   0  0  0  0  0  0  0  0  0  0  0  0
   14.0292   -9.4417    0.0000 H   0  0  0  0  0  0  0  0  0  0  0  0
   14.2501   -8.4037    0.0000 C   0  0  0  0  0  0  0  0  0  0  0  0
   14.8585   -8.9570    0.0000 C   0  0  0  0  0  0  0  0  0  0  0  0
   15.6387   -8.7037    0.0000 C   0  0  0  0  0  0  0  0  0  0  0  0
   15.8162   -7.8962    0.0000 C   0  0  0  0  0  0  0  0  0  0  0  0
   15.1989   -7.3424    0.0000 C   0  0  0  0  0  0  0  0  0  0  0  0
   14.4169   -7.5986    0.0000 C   0  0  0  0  0  0  0  0  0  0  0  0
   16.6008   -7.6413    0.0000 O   0  0  0  0  0  0  0  0  0  0  0  0
   15.3687   -6.5351    0.0000 O   0  0  0  0  0  0  0  0  0  0  0  0
   16.1528   -6.2784    0.0000 C   0  0  0  0  0  0  0  0  0  0  0  0
   11.3395  -10.4812    0.0000 C   0  0  0  0  0  0  0  0  0  0  0  0
   10.7304   -9.9263    0.0000 C   0  0  0  0  0  0  0  0  0  0  0  0
    9.9506  -10.1806    0.0000 C   0  0  0  0  0  0  0  0  0  0  0  0
    9.7742  -10.9883    0.0000 C   0  0  0  0  0  0  0  0  0  0  0  0
   10.3964  -11.5413    0.0000 C   0  0  0  0  0  0  0  0  0  0  0  0
   11.1780  -11.2840    0.0000 C   0  0  0  0  0  0  0  0  0  0  0  0
    8.9882  -11.2452    0.0000 O   0  0  0  0  0  0  0  0  0  0  0  0
    9.3377   -9.6283    0.0000 O   0  0  0  0  0  0  0  0  0  0  0  0
    9.5097   -8.8214    0.0000 C   0  0  0  0  0  0  0  0  0  0  0  0
   10.2277  -12.3489    0.0000 O   0  0  0  0  0  0  0  0  0  0  0  0
    9.4440  -12.6065    0.0000 C   0  0  0  0  0  0  0  0  0  0  0  0
    8.2858  -10.8154    0.0000 C   0  0  1  0  0  0  0  0  0  0  0  0
    7.5629  -11.2129    0.0000 C   0  0  2  0  0  0  0  0  0  0  0  0
    7.5463  -12.0389    0.0000 O   0  0  0  0  0  0  0  0  0  0  0  0
    6.8565  -10.7843    0.0000 C   0  0  1  0  0  0  0  0  0  0  0  0
    6.1336  -11.1818    0.0000 O   0  0  0  0  0  0  0  0  0  0  0  0
    6.8751   -9.9619    0.0000 C   0  0  2  0  0  0  0  0  0  0  0  0
    6.1688   -9.5334    0.0000 O   0  0  0  0  0  0  0  0  0  0  0  0
    7.5981   -9.5645    0.0000 C   0  0  2  0  0  0  0  0  0  0  0  0
    8.3024   -9.9894    0.0000 O   0  0  0  0  0  0  0  0  0  0  0  0
    7.6147   -8.7384    0.0000 C   0  0  0  0  0  0  0  0  0  0  0  0
    8.3376   -8.3410    0.0000 O   0  0  0  0  0  0  0  0  0  0  0  0
    8.9958  -10.3958    0.0000 H   0  0  0  0  0  0  0  0  0  0  0  0
  6 20  1  6  0  0  0
 20 21  2  0  0  0  0
  4 10  1  6  0  0  0
 21 22  1  0  0  0  0
  4  1  1  0  0  0  0
 22 23  2  0  0  0  0
  1 11  1  6  0  0  0
 23 24  1  0  0  0  0
  1  2  1  0  0  0  0
 24 25  2  0  0  0  0
 25 20  1  0  0  0  0
 11 12  2  0  0  0  0
 23 26  1  0  0  0  0
  2  3  1  0  0  0  0
 22 27  1  0  0  0  0
 12 13  1  0  0  0  0
 27 28  1  0  0  0  0
  3  5  1  0  0  0  0
 24 29  1  0  0  0  0
 13 14  2  0  0  0  0
 29 30  1  0  0  0  0
  5  6  1  0  0  0  0
 14 15  1  0  0  0  0
  6  7  1  0  0  0  0
 15 16  2  0  0  0  0
 16 11  1  0  0  0  0
  7  8  1  0  0  0  0
 14 17  1  0  0  0  0
  8  4  1  0  0  0  0
 15 18  1  0  0  0  0
  4  5  1  0  0  0  0
 18 19  1  0  0  0  0
 31 26  1  0  0  0  0
 31 32  1  0  0  0  0
 32 33  1  6  0  0  0
 32 34  1  0  0  0  0
 34 35  1  1  0  0  0
 34 36  1  0  0  0  0
 36 37  1  6  0  0  0
 36 38  1  0  0  0  0
 38 39  1  0  0  0  0
 38 40  1  1  0  0  0
 40 41  1  0  0  0  0
 31 39  1  0  0  0  0
  5  9  1  6  0  0  0
 31 42  1  6  0  0  0
M  END
>  <Mol Weight>
550.5517

>  <Formula>
C27H34O12

>  <chembl_id>
CHEMBL1076999

$$$$

  Mrv0541 06201412482D          

 42 47  0  0  0  0            999 V2000
   15.4706   -7.4027    0.0000 N   0  0  0  0  0  0  0  0  0  0  0  0
   16.1870   -6.9894    0.0000 C   0  0  0  0  0  0  0  0  0  0  0  0
   16.1841   -6.1588    0.0000 C   0  0  0  0  0  0  0  0  0  0  0  0
   15.4688   -5.7497    0.0000 C   0  0  0  0  0  0  0  0  0  0  0  0
   14.7557   -6.9898    0.0000 C   0  0  2  0  0  0  0  0  0  0  0  0
   14.7553   -6.1624    0.0000 C   0  0  1  0  0  0  0  0  0  0  0  0
   13.3256   -6.1631    0.0000 C   0  0  0  0  0  0  0  0  0  0  0  0
   13.3260   -6.9905    0.0000 C   0  0  0  0  0  0  0  0  0  0  0  0
   14.0434   -7.4062    0.0000 C   0  0  1  0  0  0  0  0  0  0  0  0
   15.4667   -4.9247    0.0000 O   0  0  0  0  0  0  0  0  0  0  0  0
   13.8250   -6.6042    0.0000 C   0  0  0  0  0  0  0  0  0  0  0  0
   14.0375   -5.8042    0.0000 C   0  0  2  0  0  0  0  0  0  0  0  0
   16.9021   -7.4007    0.0000 O   0  0  0  0  0  0  0  0  0  0  0  0
   16.8971   -5.7436    0.0000 C   0  0  0  0  0  0  0  0  0  0  0  0
   17.6143   -6.1580    0.0000 N   0  0  0  0  0  0  0  0  0  0  0  0
   17.6104   -4.5090    0.0000 S   0  0  0  0  0  0  0  0  0  0  0  0
   16.8934   -4.9223    0.0000 N   0  0  0  0  0  0  0  0  0  0  0  0
   17.1917   -3.7917    0.0000 O   0  0  0  0  0  0  0  0  0  0  0  0
   18.0167   -3.7917    0.0000 O   0  0  0  0  0  0  0  0  0  0  0  0
   18.3263   -4.9210    0.0000 C   0  0  0  0  0  0  0  0  0  0  0  0
   18.3224   -5.7440    0.0000 C   0  0  0  0  0  0  0  0  0  0  0  0
   19.0322   -6.1570    0.0000 C   0  0  0  0  0  0  0  0  0  0  0  0
   19.7462   -5.7482    0.0000 C   0  0  0  0  0  0  0  0  0  0  0  0
   19.7460   -4.9220    0.0000 C   0  0  0  0  0  0  0  0  0  0  0  0
   19.0357   -4.5127    0.0000 C   0  0  0  0  0  0  0  0  0  0  0  0
   20.4603   -4.5092    0.0000 N   0  0  0  0  0  0  0  0  0  0  0  0
   21.1750   -4.9213    0.0000 S   0  0  0  0  0  0  0  0  0  0  0  0
   21.8893   -4.5085    0.0000 C   0  0  0  0  0  0  0  0  0  0  0  0
   20.7542   -5.6333    0.0000 O   0  0  0  0  0  0  0  0  0  0  0  0
   21.5792   -5.6333    0.0000 O   0  0  0  0  0  0  0  0  0  0  0  0
   15.4704   -8.2277    0.0000 C   0  0  0  0  0  0  0  0  0  0  0  0
   16.1847   -8.6404    0.0000 C   0  0  0  0  0  0  0  0  0  0  0  0
   16.1804   -9.4636    0.0000 C   0  0  0  0  0  0  0  0  0  0  0  0
   16.8939   -9.8762    0.0000 C   0  0  0  0  0  0  0  0  0  0  0  0
   17.6094   -9.4638    0.0000 C   0  0  0  0  0  0  0  0  0  0  0  0
   17.6070   -8.6345    0.0000 C   0  0  0  0  0  0  0  0  0  0  0  0
   16.8929   -8.2257    0.0000 C   0  0  0  0  0  0  0  0  0  0  0  0
   18.3244   -9.8755    0.0000 F   0  0  0  0  0  0  0  0  0  0  0  0
   14.7500   -5.3333    0.0000 H   0  0  0  0  0  0  0  0  0  0  0  0
   14.7500   -7.8125    0.0000 H   0  0  0  0  0  0  0  0  0  0  0  0
   14.0333   -4.9792    0.0000 H   0  0  0  0  0  0  0  0  0  0  0  0
   14.0375   -8.2292    0.0000 H   0  0  0  0  0  0  0  0  0  0  0  0
 16 19  2  0  0  0  0
  7  8  1  0  0  0  0
  8  9  1  0  0  0  0
 20 21  2  0  0  0  0
  4  6  1  0  0  0  0
 21 22  1  0  0  0  0
  4 10  1  0  0  0  0
 22 23  2  0  0  0  0
  5  6  1  0  0  0  0
 23 24  1  0  0  0  0
  9 11  1  0  0  0  0
 24 25  2  0  0  0  0
 25 20  1  0  0  0  0
  1  2  1  0  0  0  0
 24 26  1  0  0  0  0
 12 11  1  0  0  0  0
 26 27  1  0  0  0  0
  5  1  1  0  0  0  0
 27 28  1  0  0  0  0
  2 13  2  0  0  0  0
 27 29  2  0  0  0  0
  2  3  1  0  0  0  0
 27 30  2  0  0  0  0
  3 14  1  0  0  0  0
  1 31  1  0  0  0  0
 14 15  1  0  0  0  0
 31 32  1  0  0  0  0
 32 33  2  0  0  0  0
  3  4  2  0  0  0  0
 33 34  1  0  0  0  0
  5  9  1  0  0  0  0
 34 35  2  0  0  0  0
 14 17  2  0  0  0  0
 35 36  1  0  0  0  0
 15 21  1  0  0  0  0
 36 37  2  0  0  0  0
 37 32  1  0  0  0  0
 20 16  1  0  0  0  0
 35 38  1  0  0  0  0
 16 17  1  0  0  0  0
  6 39  1  6  0  0  0
  6 12  1  0  0  0  0
  5 40  1  6  0  0  0
 16 18  2  0  0  0  0
 12 41  1  6  0  0  0
 12  7  1  0  0  0  0
  9 42  1  6  0  0  0
M  END
>  <Mol Weight>
560.618

>  <Formula>
C25H25FN4O6S2

>  <chembl_id>
CHEMBL1076265

$$$$

  Mrv0541 06201412482D          

 42 47  0  0  0  0            999 V2000
    1.1664   -5.5023    0.0000 C   0  0  0  0  0  0  0  0  0  0  0  0
    1.1671   -6.3297    0.0000 C   0  0  0  0  0  0  0  0  0  0  0  0
    1.8793   -6.7390    0.0000 N   0  0  0  0  0  0  0  0  0  0  0  0
    1.8737   -5.0859    0.0000 C   0  0  0  0  0  0  0  0  0  0  0  0
    2.5907   -5.4955    0.0000 C   0  0  0  0  0  0  0  0  0  0  0  0
    2.5943   -6.3257    0.0000 C   0  0  0  0  0  0  0  0  0  0  0  0
    1.8694   -4.2603    0.0000 C   0  0  0  0  0  0  0  0  0  0  0  0
    2.5828   -3.8458    0.0000 N   0  0  0  0  0  0  0  0  0  0  0  0
    1.1559   -3.8533    0.0000 O   0  0  0  0  0  0  0  0  0  0  0  0
    3.2996   -4.2576    0.0000 C   0  0  0  0  0  0  0  0  0  0  0  0
    4.0109   -3.8467    0.0000 C   0  0  0  0  0  0  0  0  0  0  0  0
    4.0108   -3.0166    0.0000 N   0  0  0  0  0  0  0  0  0  0  0  0
    3.2933   -2.6075    0.0000 C   0  0  0  0  0  0  0  0  0  0  0  0
    2.5758   -3.0243    0.0000 C   0  0  0  0  0  0  0  0  0  0  0  0
    4.7266   -2.6061    0.0000 C   0  0  0  0  0  0  0  0  0  0  0  0
    5.4426   -3.0220    0.0000 C   0  0  0  0  0  0  0  0  0  0  0  0
    6.1553   -2.6096    0.0000 C   0  0  0  0  0  0  0  0  0  0  0  0
    6.1583   -1.7837    0.0000 N   0  0  0  0  0  0  0  0  0  0  0  0
    5.4423   -1.3677    0.0000 C   0  0  0  0  0  0  0  0  0  0  0  0
    4.7234   -1.7818    0.0000 C   0  0  0  0  0  0  0  0  0  0  0  0
    6.8706   -1.3704    0.0000 C   0  0  0  0  0  0  0  0  0  0  0  0
    6.8725   -0.5449    0.0000 O   0  0  0  0  0  0  0  0  0  0  0  0
    7.5821   -1.7847    0.0000 C   0  0  1  0  0  0  0  0  0  0  0  0
    7.5757   -2.6028    0.0000 C   0  0  0  0  0  0  0  0  0  0  0  0
    8.2831   -3.0129    0.0000 C   0  0  0  0  0  0  0  0  0  0  0  0
    8.9984   -2.6088    0.0000 C   0  0  1  0  0  0  0  0  0  0  0  0
    9.0019   -1.7862    0.0000 C   0  0  0  0  0  0  0  0  0  0  0  0
    8.2900   -1.3675    0.0000 C   0  0  0  0  0  0  0  0  0  0  0  0
    3.3090   -6.7298    0.0000 C   0  0  0  0  0  0  0  0  0  0  0  0
    3.3107   -7.5565    0.0000 C   0  0  0  0  0  0  0  0  0  0  0  0
    4.0270   -7.9686    0.0000 C   0  0  0  0  0  0  0  0  0  0  0  0
    4.7419   -7.5511    0.0000 C   0  0  0  0  0  0  0  0  0  0  0  0
    4.7362   -6.7212    0.0000 C   0  0  0  0  0  0  0  0  0  0  0  0
    4.0194   -6.3170    0.0000 C   0  0  0  0  0  0  0  0  0  0  0  0
    0.4561   -6.7419    0.0000 C   0  0  0  0  0  0  0  0  0  0  0  0
   -0.2604   -6.3305    0.0000 C   0  0  0  0  0  0  0  0  0  0  0  0
   -0.9746   -6.7417    0.0000 C   0  0  0  0  0  0  0  0  0  0  0  0
   -0.9737   -7.5681    0.0000 C   0  0  0  0  0  0  0  0  0  0  0  0
   -0.2528   -7.9817    0.0000 C   0  0  0  0  0  0  0  0  0  0  0  0
    0.4587   -7.5641    0.0000 C   0  0  0  0  0  0  0  0  0  0  0  0
    9.7070   -3.0244    0.0000 O   0  0  0  0  0  0  0  0  0  0  0  0
    9.7013   -3.8458    0.0000 C   0  0  0  0  0  0  0  0  0  0  0  0
 12 15  1  0  0  0  0
  4  1  2  0  0  0  0
 18 21  1  0  0  0  0
 21 22  2  0  0  0  0
  2  3  2  0  0  0  0
 23 21  1  6  0  0  0
 23 24  1  0  0  0  0
  5  6  2  0  0  0  0
  3  6  1  0  0  0  0
  8 14  1  0  0  0  0
 10 11  1  0  0  0  0
 11 12  1  0  0  0  0
 23 28  1  0  0  0  0
 24 25  1  0  0  0  0
 25 26  1  0  0  0  0
 26 27  1  0  0  0  0
 27 28  1  0  0  0  0
 12 13  1  0  0  0  0
 13 14  1  0  0  0  0
 29 30  2  0  0  0  0
 15 16  1  0  0  0  0
 30 31  1  0  0  0  0
  4  7  1  0  0  0  0
 31 32  2  0  0  0  0
  1  2  1  0  0  0  0
 32 33  1  0  0  0  0
  7  8  1  0  0  0  0
 33 34  2  0  0  0  0
 34 29  1  0  0  0  0
  6 29  1  0  0  0  0
  5  4  1  0  0  0  0
  7  9  2  0  0  0  0
 35 36  2  0  0  0  0
  8 10  1  0  0  0  0
 36 37  1  0  0  0  0
 15 20  1  0  0  0  0
 37 38  2  0  0  0  0
 16 17  1  0  0  0  0
 38 39  1  0  0  0  0
 17 18  1  0  0  0  0
 39 40  2  0  0  0  0
 40 35  1  0  0  0  0
  2 35  1  0  0  0  0
 18 19  1  0  0  0  0
 26 41  1  1  0  0  0
 19 20  1  0  0  0  0
 41 42  1  0  0  0  0
M  END
>  <Mol Weight>
566.733

>  <Formula>
C35H42N4O3

>  <chembl_id>
CHEMBL1076214

$$$$

  Mrv0541 06201412482D          

 41 45  0  0  0  0            999 V2000
   -3.2143   -1.9624    0.0000 N   0  0  0  0  0  0  0  0  0  0  0  0
   -2.5387   -1.4890    0.0000 C   0  0  0  0  0  0  0  0  0  0  0  0
   -2.7802   -0.7001    0.0000 C   0  0  0  0  0  0  0  0  0  0  0  0
   -3.6051   -0.6860    0.0000 C   0  0  0  0  0  0  0  0  0  0  0  0
   -4.1466   -0.0636    0.0000 C   0  0  0  0  0  0  0  0  0  0  0  0
   -4.9564   -0.2213    0.0000 C   0  0  0  0  0  0  0  0  0  0  0  0
   -5.2246   -1.0015    0.0000 C   0  0  0  0  0  0  0  0  0  0  0  0
   -4.6831   -1.6239    0.0000 C   0  0  0  0  0  0  0  0  0  0  0  0
   -3.8734   -1.4662    0.0000 C   0  0  0  0  0  0  0  0  0  0  0  0
   -0.9313   -0.5654    0.0000 N   0  0  0  0  0  0  0  0  0  0  0  0
   -1.0560   -1.3810    0.0000 C   0  0  0  0  0  0  0  0  0  0  0  0
   -1.7713   -1.7920    0.0000 C   0  0  0  0  0  0  0  0  0  0  0  0
   -2.3140   -0.0194    0.0000 C   0  0  0  0  0  0  0  0  0  0  0  0
   -1.4912    0.0405    0.0000 C   0  0  0  0  0  0  0  0  0  0  0  0
   -1.7114   -2.6148    0.0000 C   0  0  0  0  0  0  0  0  0  0  0  0
   -2.3940   -3.0781    0.0000 O   0  0  0  0  0  0  0  0  0  0  0  0
   -0.9689   -2.9743    0.0000 O   0  0  0  0  0  0  0  0  0  0  0  0
   -0.1425   -0.3239    0.0000 C   0  0  0  0  0  0  0  0  0  0  0  0
    0.4611   -0.8863    0.0000 C   0  0  0  0  0  0  0  0  0  0  0  0
    1.2500   -0.6448    0.0000 C   0  0  0  0  0  0  0  0  0  0  0  0
    1.8535   -1.2072    0.0000 C   0  0  0  0  0  0  0  0  0  0  0  0
    1.6683   -2.0112    0.0000 C   0  0  0  0  0  0  0  0  0  0  0  0
    0.8794   -2.2527    0.0000 C   0  0  0  0  0  0  0  0  0  0  0  0
    0.2758   -1.6903    0.0000 C   0  0  0  0  0  0  0  0  0  0  0  0
    0.0428    0.4800    0.0000 O   0  0  0  0  0  0  0  0  0  0  0  0
    2.6424   -0.9657    0.0000 O   0  0  0  0  0  0  0  0  0  0  0  0
    2.8277   -0.1618    0.0000 C   0  0  0  0  0  0  0  0  0  0  0  0
    3.6165    0.0797    0.0000 C   0  0  0  0  0  0  0  0  0  0  0  0
    3.8018    0.8837    0.0000 C   0  0  0  0  0  0  0  0  0  0  0  0
    4.5906    1.1252    0.0000 N   0  0  0  0  0  0  0  0  0  0  0  0
    4.7759    1.9291    0.0000 C   0  0  0  0  0  0  0  0  0  0  0  0
    5.5648    2.1706    0.0000 C   0  0  0  0  0  0  0  0  0  0  0  0
    6.1684    1.6082    0.0000 N   0  0  0  0  0  0  0  0  0  0  0  0
    5.9831    0.8043    0.0000 C   0  0  0  0  0  0  0  0  0  0  0  0
    5.1942    0.5628    0.0000 C   0  0  0  0  0  0  0  0  0  0  0  0
    6.9572    1.8498    0.0000 C   0  0  0  0  0  0  0  0  0  0  0  0
   -2.3555    0.8045    0.0000 C   0  0  0  0  0  0  0  0  0  0  0  0
   -3.0050    0.4313    0.0000 C   0  0  0  0  0  0  0  0  0  0  0  0
   -0.2863   -2.5110    0.0000 C   0  0  0  0  0  0  0  0  0  0  0  0
   -0.3462   -1.6882    0.0000 C   0  0  0  0  0  0  0  0  0  0  0  0
    0.4563   -2.8705    0.0000 C   0  0  0  0  0  0  0  0  0  0  0  0
  1  2  1  0  0  0  0
  2  3  2  0  0  0  0
  3  4  1  0  0  0  0
  4  5  1  0  0  0  0
  5  6  2  0  0  0  0
  6  7  1  0  0  0  0
  7  8  2  0  0  0  0
  8  9  1  0  0  0  0
  1  9  1  0  0  0  0
  4  9  2  0  0  0  0
 10 11  1  0  0  0  0
 11 12  2  0  0  0  0
 13 14  1  0  0  0  0
 10 14  1  0  0  0  0
  2 12  1  0  0  0  0
  3 13  1  0  0  0  0
 15 16  2  0  0  0  0
 15 17  1  0  0  0  0
 12 15  1  0  0  0  0
 18 19  1  0  0  0  0
 19 20  1  0  0  0  0
 20 21  2  0  0  0  0
 21 22  1  0  0  0  0
 22 23  2  0  0  0  0
 23 24  1  0  0  0  0
 19 24  2  0  0  0  0
 18 25  2  0  0  0  0
 27 28  1  0  0  0  0
 28 29  1  0  0  0  0
 26 27  1  0  0  0  0
 30 31  1  0  0  0  0
 31 32  1  0  0  0  0
 32 33  1  0  0  0  0
 33 34  1  0  0  0  0
 34 35  1  0  0  0  0
 30 35  1  0  0  0  0
 33 36  1  0  0  0  0
 29 30  1  0  0  0  0
 21 26  1  0  0  0  0
 10 18  1  0  0  0  0
 13 37  1  0  0  0  0
 13 38  1  0  0  0  0
 39 40  1  0  0  0  0
 39 41  1  0  0  0  0
 17 39  1  0  0  0  0
M  END
>  <Mol Weight>
558.711

>  <Formula>
C33H42N4O4

>  <chembl_id>
CHEMBL602709

$$$$

  Mrv0541 06201412482D          

 43 49  0  0  0  0            999 V2000
    3.6449   -2.9641    0.0000 C   0  0  0  0  0  0  0  0  0  0  0  0
    2.9724   -3.4499    0.0000 N   0  0  0  0  0  0  0  0  0  0  0  0
    3.3834   -2.1795    0.0000 C   0  0  0  0  0  0  0  0  0  0  0  0
    2.5614   -2.1795    0.0000 N   0  0  0  0  0  0  0  0  0  0  0  0
    5.0772   -6.2770    0.0000 N   0  0  0  0  0  0  0  0  0  0  0  0
    2.2999   -2.9641    0.0000 C   0  0  0  0  0  0  0  0  0  0  0  0
    4.4296   -3.2257    0.0000 C   0  0  0  0  0  0  0  0  0  0  0  0
    6.5219   -7.0616    0.0000 C   0  0  0  0  0  0  0  0  0  0  0  0
    5.8120   -7.4975    0.0000 C   0  0  0  0  0  0  0  0  0  0  0  0
    5.1021   -7.0990    0.0000 C   0  0  0  0  0  0  0  0  0  0  0  0
    6.5842   -6.2272    0.0000 N   0  0  0  0  0  0  0  0  0  0  0  0
    7.3812   -6.0404    0.0000 N   0  0  0  0  0  0  0  0  0  0  0  0
    4.2677   -6.0902    0.0000 C   0  0  0  0  0  0  0  0  0  0  0  0
    7.2816   -7.3730    0.0000 N   0  0  0  0  0  0  0  0  0  0  0  0
    5.5255   -5.6792    0.0000 C   0  0  0  0  0  0  0  0  0  0  0  0
    4.2677   -5.2682    0.0000 C   0  0  0  0  0  0  0  0  0  0  0  0
    3.5578   -4.0352    0.0000 C   0  0  0  0  0  0  0  0  0  0  0  0
    7.8171   -6.7378    0.0000 N   0  0  0  0  0  0  0  0  0  0  0  0
    5.0523   -5.0066    0.0000 C   0  0  0  0  0  0  0  0  0  0  0  0
    3.5578   -4.8572    0.0000 C   0  0  0  0  0  0  0  0  0  0  0  0
    5.0398   -2.6652    0.0000 O   0  0  0  0  0  0  0  0  0  0  0  0
    7.2069   -2.6279    0.0000 C   0  0  0  0  0  0  0  0  0  0  0  0
    4.5915   -4.0228    0.0000 O   0  0  0  0  0  0  0  0  0  0  0  0
    5.8244   -2.9143    0.0000 C   0  0  0  0  0  0  0  0  0  0  0  0
    3.8691   -1.5070    0.0000 Cl  0  0  0  0  0  0  0  0  0  0  0  0
    6.4347   -2.3788    0.0000 C   0  0  0  0  0  0  0  0  0  0  0  0
    7.3812   -3.4249    0.0000 C   0  0  0  0  0  0  0  0  0  0  0  0
    6.7710   -3.9854    0.0000 C   0  0  0  0  0  0  0  0  0  0  0  0
    5.9864   -3.7238    0.0000 C   0  0  0  0  0  0  0  0  0  0  0  0
    1.5152   -3.2257    0.0000 C   0  0  0  0  0  0  0  0  0  0  0  0
    5.8369   -8.3195    0.0000 C   0  0  0  0  0  0  0  0  0  0  0  0
    3.5453   -6.5012    0.0000 C   0  0  0  0  0  0  0  0  0  0  0  0
    4.3922   -7.5349    0.0000 C   0  0  0  0  0  0  0  0  0  0  0  0
    2.8354   -5.2557    0.0000 C   0  0  0  0  0  0  0  0  0  0  0  0
    7.9168   -2.2169    0.0000 C   0  0  0  0  0  0  0  0  0  0  0  0
    2.8230   -6.0902    0.0000 C   0  0  0  0  0  0  0  0  0  0  0  0
    8.5395   -2.7649    0.0000 C   0  0  0  0  0  0  0  0  0  0  0  0
    8.2032   -3.5121    0.0000 C   0  0  0  0  0  0  0  0  0  0  0  0
    0.9050   -2.6652    0.0000 C   0  0  0  0  0  0  0  0  0  0  0  0
    0.1204   -2.9143    0.0000 C   0  0  0  0  0  0  0  0  0  0  0  0
    5.1395   -8.7554    0.0000 C   0  0  0  0  0  0  0  0  0  0  0  0
    4.4171   -8.3569    0.0000 C   0  0  0  0  0  0  0  0  0  0  0  0
   -0.4899   -2.3788    0.0000 C   0  0  0  0  0  0  0  0  0  0  0  0
  2  1  1  0  0  0  0
  3  1  2  0  0  0  0
  4  3  1  0  0  0  0
  5 13  1  0  0  0  0
  6  2  1  0  0  0  0
  7  1  1  0  0  0  0
  8  9  1  0  0  0  0
  9 10  1  0  0  0  0
 10  5  1  0  0  0  0
 11  8  1  0  0  0  0
 12 11  2  0  0  0  0
 13 16  2  0  0  0  0
 14  8  2  0  0  0  0
 15 19  2  0  0  0  0
 16 20  1  0  0  0  0
 17  2  1  0  0  0  0
 18 14  1  0  0  0  0
 19 16  1  0  0  0  0
 20 17  1  0  0  0  0
 21  7  1  0  0  0  0
 22 26  2  0  0  0  0
 23  7  2  0  0  0  0
 24 21  1  0  0  0  0
 25  3  1  0  0  0  0
 26 24  1  0  0  0  0
 27 28  2  0  0  0  0
 28 29  1  0  0  0  0
 29 24  2  0  0  0  0
 30  6  1  0  0  0  0
 31  9  2  0  0  0  0
 32 36  2  0  0  0  0
 33 10  2  0  0  0  0
 34 20  2  0  0  0  0
 35 22  1  0  0  0  0
 36 34  1  0  0  0  0
 37 35  1  0  0  0  0
 38 27  1  0  0  0  0
 39 30  1  0  0  0  0
 40 39  1  0  0  0  0
 41 42  2  0  0  0  0
 42 33  1  0  0  0  0
 43 40  1  0  0  0  0
  6  4  2  0  0  0  0
 27 22  1  0  0  0  0
 32 13  1  0  0  0  0
 15  5  1  0  0  0  0
 37 38  1  0  0  0  0
 31 41  1  0  0  0  0
 12 18  1  0  0  0  0
M  END
>  <Mol Weight>
592.09

>  <Formula>
C33H30ClN7O2

>  <chembl_id>
CHEMBL1206631

$$$$

  Mrv0541 06201412482D          

 42 44  0  0  0  0            999 V2000
   12.8899  -21.1389    0.0000 C   0  0  0  0  0  0  0  0  0  0  0  0
   13.6052  -20.7284    0.0000 N   0  0  0  0  0  0  0  0  0  0  0  0
   12.8899  -21.9643    0.0000 O   0  0  0  0  0  0  0  0  0  0  0  0
   14.3205  -21.1389    0.0000 C   0  0  2  0  0  0  0  0  0  0  0  0
   15.0358  -20.7284    0.0000 C   0  0  0  0  0  0  0  0  0  0  0  0
   14.3205  -21.9643    0.0000 C   0  0  0  0  0  0  0  0  0  0  0  0
   15.0358  -22.3790    0.0000 C   0  0  0  0  0  0  0  0  0  0  0  0
   15.0365  -23.2053    0.0000 C   0  0  0  0  0  0  0  0  0  0  0  0
   15.7477  -23.6158    0.0000 C   0  0  0  0  0  0  0  0  0  0  0  0
   16.4654  -23.2087    0.0000 C   0  0  0  0  0  0  0  0  0  0  0  0
   16.4674  -22.3824    0.0000 C   0  0  0  0  0  0  0  0  0  0  0  0
   15.7512  -21.1389    0.0000 N   0  0  0  0  0  0  0  0  0  0  0  0
   15.0358  -19.9030    0.0000 O   0  0  0  0  0  0  0  0  0  0  0  0
   15.7512  -21.9643    0.0000 C   0  0  0  0  0  0  0  0  0  0  0  0
   16.4664  -20.7284    0.0000 C   0  0  0  0  0  0  0  0  0  0  0  0
   17.1817  -21.1389    0.0000 C   0  0  0  0  0  0  0  0  0  0  0  0
   16.4664  -19.9030    0.0000 C   0  0  0  0  0  0  0  0  0  0  0  0
   17.1817  -19.4883    0.0000 O   0  0  0  0  0  0  0  0  0  0  0  0
   17.8929  -20.7284    0.0000 C   0  0  0  0  0  0  0  0  0  0  0  0
   17.1817  -21.9643    0.0000 O   0  0  0  0  0  0  0  0  0  0  0  0
   18.6081  -21.1389    0.0000 N   0  0  0  0  0  0  0  0  0  0  0  0
   17.8929  -19.9030    0.0000 O   0  0  0  0  0  0  0  0  0  0  0  0
   19.3235  -20.7284    0.0000 C   0  0  0  0  0  0  0  0  0  0  0  0
   20.0388  -21.1389    0.0000 C   0  0  0  0  0  0  0  0  0  0  0  0
   20.7540  -20.7284    0.0000 O   0  0  0  0  0  0  0  0  0  0  0  0
   20.0388  -21.9643    0.0000 O   0  0  0  0  0  0  0  0  0  0  0  0
   21.4694  -21.1389    0.0000 C   0  0  0  0  0  0  0  0  0  0  0  0
   22.1847  -20.7284    0.0000 C   0  0  0  0  0  0  0  0  0  0  0  0
   17.1817  -18.6630    0.0000 C   0  0  0  0  0  0  0  0  0  0  0  0
   17.8929  -18.2524    0.0000 C   0  0  0  0  0  0  0  0  0  0  0  0
   18.6106  -18.6691    0.0000 C   0  0  0  0  0  0  0  0  0  0  0  0
   19.3255  -18.2592    0.0000 C   0  0  0  0  0  0  0  0  0  0  0  0
   19.3259  -17.4330    0.0000 C   0  0  0  0  0  0  0  0  0  0  0  0
   18.6057  -17.0185    0.0000 C   0  0  0  0  0  0  0  0  0  0  0  0
   17.8938  -17.4348    0.0000 C   0  0  0  0  0  0  0  0  0  0  0  0
   12.1755  -20.7263    0.0000 C   0  0  0  0  0  0  0  0  0  0  0  0
   12.1812  -19.9027    0.0000 N   0  0  0  0  0  0  0  0  0  0  0  0
   11.4710  -19.4901    0.0000 C   0  0  0  0  0  0  0  0  0  0  0  0
   10.7541  -19.8989    0.0000 C   0  0  0  0  0  0  0  0  0  0  0  0
   10.7519  -20.7248    0.0000 N   0  0  0  0  0  0  0  0  0  0  0  0
   11.4666  -21.1419    0.0000 C   0  0  0  0  0  0  0  0  0  0  0  0
   11.4743  -18.6690    0.0000 C   0  0  0  0  0  0  0  0  0  0  0  0
 19 21  1  0  0  0  0
  9 10  1  0  0  0  0
 19 22  2  0  0  0  0
 10 11  1  0  0  0  0
 21 23  1  0  0  0  0
 11 14  1  0  0  0  0
 23 24  1  0  0  0  0
  4  6  1  6  0  0  0
 24 25  1  0  0  0  0
  5 12  1  0  0  0  0
 24 26  2  0  0  0  0
  1  2  1  0  0  0  0
 25 27  1  0  0  0  0
  5 13  2  0  0  0  0
 27 28  1  0  0  0  0
  6  7  1  0  0  0  0
 18 29  1  0  0  0  0
  7  8  1  0  0  0  0
 29 30  1  0  0  0  0
 12 15  1  0  0  0  0
 30 31  2  0  0  0  0
  2  4  1  0  0  0  0
 31 32  1  0  0  0  0
 15 16  1  0  0  0  0
 32 33  2  0  0  0  0
 33 34  1  0  0  0  0
 15 17  1  0  0  0  0
 34 35  2  0  0  0  0
 35 30  1  0  0  0  0
  4  5  1  0  0  0  0
  1 36  1  0  0  0  0
 36 37  2  0  0  0  0
 17 18  1  0  0  0  0
  1  3  2  0  0  0  0
 16 19  1  0  0  0  0
  7 14  1  0  0  0  0
 16 20  2  0  0  0  0
 36 41  1  0  0  0  0
 37 38  1  0  0  0  0
 38 39  2  0  0  0  0
 39 40  1  0  0  0  0
 40 41  2  0  0  0  0
  8  9  1  0  0  0  0
 38 42  1  0  0  0  0
M  END
>  <Mol Weight>
581.66

>  <Formula>
C30H39N5O7

>  <chembl_id>
CHEMBL1085980

$$$$

  Mrv0541 06201412482D          

 43 45  0  0  0  0            999 V2000
    8.9738   -3.6136    0.0000 C   0  0  0  0  0  0  0  0  0  0  0  0
    9.5922   -4.1633    0.0000 C   0  0  0  0  0  0  0  0  0  0  0  0
    8.1663   -3.8026    0.0000 N   0  0  0  0  0  0  0  0  0  0  0  0
   10.3653   -3.8885    0.0000 C   0  0  0  0  0  0  0  0  0  0  0  0
    9.0539   -2.8061    0.0000 C   0  0  0  0  0  0  0  0  0  0  0  0
    7.7540   -3.0810    0.0000 C   0  0  0  0  0  0  0  0  0  0  0  0
    4.0373   -2.3594    0.0000 N   0  0  0  0  0  0  0  0  0  0  0  0
   10.9838   -4.4210    0.0000 N   0  0  0  0  0  0  0  0  0  0  0  0
    8.3037   -2.4797    0.0000 C   0  0  0  0  0  0  0  0  0  0  0  0
    3.2013   -2.3594    0.0000 C   0  0  0  0  0  0  0  0  0  0  0  0
    2.7889   -1.6379    0.0000 C   0  0  0  0  0  0  0  0  0  0  0  0
    5.6924   -2.3594    0.0000 N   0  0  0  0  0  0  0  0  0  0  0  0
    9.4376   -4.9708    0.0000 O   0  0  0  0  0  0  0  0  0  0  0  0
    6.9236   -3.0810    0.0000 C   0  0  0  0  0  0  0  0  0  0  0  0
    4.6100   -7.5650    0.0000 C   0  0  0  0  0  0  0  0  0  0  0  0
    6.4082   -6.3452    0.0000 C   0  0  0  0  0  0  0  0  0  0  0  0
    3.2184   -0.9163    0.0000 O   0  0  0  0  0  0  0  0  0  0  0  0
   10.5200   -3.0810    0.0000 O   0  0  0  0  0  0  0  0  0  0  0  0
    4.4554   -1.6379    0.0000 C   0  0  0  0  0  0  0  0  0  0  0  0
    4.4496   -3.0638    0.0000 C   0  0  0  0  0  0  0  0  0  0  0  0
    6.9809   -6.9293    0.0000 O   0  0  0  0  0  0  0  0  0  0  0  0
    3.7281   -6.6888    0.0000 O   0  0  0  0  0  0  0  0  0  0  0  0
    6.6201   -5.5721    0.0000 O   0  0  0  0  0  0  0  0  0  0  0  0
    4.3981   -8.3381    0.0000 O   0  0  0  0  0  0  0  0  0  0  0  0
    6.5170   -2.3594    0.0000 C   0  0  0  0  0  0  0  0  0  0  0  0
    5.2800   -1.6379    0.0000 C   0  0  0  0  0  0  0  0  0  0  0  0
    5.2800   -3.0638    0.0000 C   0  0  0  0  0  0  0  0  0  0  0  0
    5.6179   -6.5514    0.0000 C   0  0  0  0  0  0  0  0  0  0  0  0
    5.4003   -7.3417    0.0000 C   0  0  0  0  0  0  0  0  0  0  0  0
    7.8341   -4.5585    0.0000 C   0  0  0  0  0  0  0  0  0  0  0  0
   10.7032   -5.1941    0.0000 C   0  0  0  0  0  0  0  0  0  0  0  0
   11.7569   -4.1633    0.0000 C   0  0  0  0  0  0  0  0  0  0  0  0
    2.8003   -0.1948    0.0000 C   0  0  0  0  0  0  0  0  0  0  0  0
    1.9643   -1.6379    0.0000 C   0  0  0  0  0  0  0  0  0  0  0  0
    2.7889   -3.0810    0.0000 C   0  0  0  0  0  0  0  0  0  0  0  0
    1.9643   -0.1948    0.0000 C   0  0  0  0  0  0  0  0  0  0  0  0
    3.2184    0.5268    0.0000 C   0  0  0  0  0  0  0  0  0  0  0  0
   11.1327   -5.8985    0.0000 C   0  0  0  0  0  0  0  0  0  0  0  0
   12.4441   -4.6100    0.0000 C   0  0  0  0  0  0  0  0  0  0  0  0
    1.5520   -2.3594    0.0000 C   0  0  0  0  0  0  0  0  0  0  0  0
    1.9585   -3.0810    0.0000 C   0  0  0  0  0  0  0  0  0  0  0  0
   12.5243   -5.4347    0.0000 C   0  0  0  0  0  0  0  0  0  0  0  0
   11.9459   -6.0016    0.0000 C   0  0  0  0  0  0  0  0  0  0  0  0
  2  1  1  0  0  0  0
  3  1  1  0  0  0  0
  4  2  1  0  0  0  0
  5  1  2  0  0  0  0
  6  3  1  0  0  0  0
  7 20  1  0  0  0  0
  8  4  1  0  0  0  0
  9  5  1  0  0  0  0
 10  7  1  0  0  0  0
 11 10  2  0  0  0  0
 12 25  1  0  0  0  0
 13  2  2  0  0  0  0
 14  6  1  0  0  0  0
 16 28  1  0  0  0  0
 17 11  1  0  0  0  0
 18  4  2  0  0  0  0
 19 26  1  0  0  0  0
 20 27  1  0  0  0  0
 21 16  1  0  0  0  0
 22 15  1  0  0  0  0
 23 16  2  0  0  0  0
 24 15  2  0  0  0  0
 25 14  1  0  0  0  0
 26 12  1  0  0  0  0
 27 12  1  0  0  0  0
 28 29  1  0  0  0  0
 29 15  1  0  0  0  0
 30  3  1  0  0  0  0
 31  8  1  0  0  0  0
 32  8  1  0  0  0  0
 33 17  1  0  0  0  0
 34 11  1  0  0  0  0
 35 10  1  0  0  0  0
 36 33  1  0  0  0  0
 37 33  1  0  0  0  0
 38 31  1  0  0  0  0
 39 32  1  0  0  0  0
 40 41  1  0  0  0  0
 41 35  2  0  0  0  0
 42 39  1  0  0  0  0
 43 38  1  0  0  0  0
  9  6  2  0  0  0  0
 42 43  1  0  0  0  0
 19  7  1  0  0  0  0
 40 34  2  0  0  0  0
M  END
>  <Mol Weight>
598.7302

>  <Formula>
C32H46N4O7

>  <chembl_id>
CHEMBL1161051

$$$$

  Mrv0541 06201412482D          

 42 47  0  0  0  0            999 V2000
   -2.3699    1.6008    0.0000 C   0  0  0  0  0  0  0  0  0  0  0  0
   -1.6050    1.3124    0.0000 N   0  0  0  0  0  0  0  0  0  0  0  0
   -2.6583    2.3907    0.0000 C   0  0  0  0  0  0  0  0  0  0  0  0
   -1.4879    0.4848    0.0000 C   0  0  0  0  0  0  0  0  0  0  0  0
    1.6468   -1.6970    0.0000 C   0  0  0  0  0  0  0  0  0  0  0  0
   -2.2528    3.0971    0.0000 N   0  0  0  0  0  0  0  0  0  0  0  0
    2.3866   -2.0438    0.0000 C   0  0  0  0  0  0  0  0  0  0  0  0
   -3.4816    2.3782    0.0000 S   0  0  0  0  0  0  0  0  0  0  0  0
    2.5078   -2.8756    0.0000 C   0  0  0  0  0  0  0  0  0  0  0  0
   -3.0093    1.0909    0.0000 C   0  0  0  0  0  0  0  0  0  0  0  0
    1.5214   -0.8694    0.0000 N   0  0  0  0  0  0  0  0  0  0  0  0
   -2.7836    5.2706    0.0000 N   0  0  0  0  0  0  0  0  0  0  0  0
   -3.6697    6.7000    0.0000 N   0  0  0  0  0  0  0  0  0  0  0  0
   -3.6948    1.5674    0.0000 C   0  0  0  0  0  0  0  0  0  0  0  0
   -0.7356    0.1463    0.0000 C   0  0  0  0  0  0  0  0  0  0  0  0
   -2.1316   -0.0168    0.0000 O   0  0  0  0  0  0  0  0  0  0  0  0
    1.0031   -2.2069    0.0000 O   0  0  0  0  0  0  0  0  0  0  0  0
   -2.7042    3.8118    0.0000 C   0  0  0  0  0  0  0  0  0  0  0  0
    1.8600   -3.3772    0.0000 C   0  0  0  0  0  0  0  0  0  0  0  0
   -0.9279    1.7638    0.0000 C   0  0  0  0  0  0  0  0  0  0  0  0
   -0.6269   -0.6939    0.0000 C   0  0  0  0  0  0  0  0  0  0  0  0
   -0.0961    0.6478    0.0000 C   0  0  0  0  0  0  0  0  0  0  0  0
    0.7691   -0.5308    0.0000 C   0  0  0  0  0  0  0  0  0  0  0  0
   -2.3406    4.5558    0.0000 C   0  0  0  0  0  0  0  0  0  0  0  0
   -2.4158    6.0104    0.0000 C   0  0  0  0  0  0  0  0  0  0  0  0
   -3.5987    5.2329    0.0000 C   0  0  0  0  0  0  0  0  0  0  0  0
   -4.0459    5.9602    0.0000 C   0  0  0  0  0  0  0  0  0  0  0  0
   -2.8672    6.7251    0.0000 C   0  0  0  0  0  0  0  0  0  0  0  0
   -0.8610    2.6039    0.0000 C   0  0  0  0  0  0  0  0  0  0  0  0
   -1.4503    3.1974    0.0000 C   0  0  0  0  0  0  0  0  0  0  0  0
    0.1254   -1.0324    0.0000 C   0  0  0  0  0  0  0  0  0  0  0  0
    0.6520    0.3093    0.0000 C   0  0  0  0  0  0  0  0  0  0  0  0
    3.0261   -1.5340    0.0000 C   0  0  0  0  0  0  0  0  0  0  0  0
    3.2601   -3.2142    0.0000 C   0  0  0  0  0  0  0  0  0  0  0  0
   -4.1211    7.4022    0.0000 C   0  0  0  0  0  0  0  0  0  0  0  0
    1.9686   -4.2048    0.0000 C   0  0  0  0  0  0  0  0  0  0  0  0
    1.1076   -3.0386    0.0000 C   0  0  0  0  0  0  0  0  0  0  0  0
    3.9038   -2.7126    0.0000 C   0  0  0  0  0  0  0  0  0  0  0  0
    3.7784   -1.8725    0.0000 C   0  0  0  0  0  0  0  0  0  0  0  0
    0.4556   -3.5276    0.0000 C   0  0  0  0  0  0  0  0  0  0  0  0
    1.3417   -4.7063    0.0000 C   0  0  0  0  0  0  0  0  0  0  0  0
    0.5810   -4.3678    0.0000 C   0  0  0  0  0  0  0  0  0  0  0  0
  2  1  1  0  0  0  0
  3  1  2  0  0  0  0
  4  2  1  0  0  0  0
  5 11  1  0  0  0  0
  6  3  1  0  0  0  0
  7  5  1  0  0  0  0
  8  3  1  0  0  0  0
  9  7  2  0  0  0  0
 10  1  1  0  0  0  0
 11 23  1  0  0  0  0
 12 24  1  0  0  0  0
 13 27  1  0  0  0  0
 14 10  2  0  0  0  0
 15  4  1  0  0  0  0
 16  4  2  0  0  0  0
 17  5  2  0  0  0  0
 18  6  1  0  0  0  0
 19  9  1  0  0  0  0
 20  2  1  0  0  0  0
 21 15  2  0  0  0  0
 22 15  1  0  0  0  0
 23 32  1  0  0  0  0
 24 18  1  0  0  0  0
 25 12  1  0  0  0  0
 26 12  1  0  0  0  0
 27 26  1  0  0  0  0
 28 25  1  0  0  0  0
 29 20  1  0  0  0  0
 30  6  1  0  0  0  0
 31 21  1  0  0  0  0
 32 22  2  0  0  0  0
 33  7  1  0  0  0  0
 34  9  1  0  0  0  0
 35 13  1  0  0  0  0
 36 19  1  0  0  0  0
 37 19  2  0  0  0  0
 38 39  1  0  0  0  0
 39 33  2  0  0  0  0
 40 37  1  0  0  0  0
 41 36  2  0  0  0  0
 42 40  2  0  0  0  0
  8 14  1  0  0  0  0
 29 30  1  0  0  0  0
 31 23  2  0  0  0  0
 28 13  1  0  0  0  0
 34 38  2  0  0  0  0
 41 42  1  0  0  0  0
M  END
>  <Mol Weight>
579.755

>  <Formula>
C34H37N5O2S

>  <chembl_id>
CHEMBL177285

$$$$

  Mrv0541 06201412482D          

 42 45  0  0  0  0            999 V2000
    3.9304   -1.5508    0.0000 C   0  0  0  0  0  0  0  0  0  0  0  0
    3.5440   -1.0156    0.0000 C   0  0  0  0  0  0  0  0  0  0  0  0
    3.8145   -0.4136    0.0000 C   0  0  0  0  0  0  0  0  0  0  0  0
    2.7242   -1.0988    0.0000 C   0  0  0  0  0  0  0  0  0  0  0  0
    2.1731   -0.4848    0.0000 C   0  0  0  0  0  0  0  0  0  0  0  0
    1.4293   -0.8252    0.0000 C   0  0  0  0  0  0  0  0  0  0  0  0
    0.7145   -0.4125    0.0000 C   0  0  0  0  0  0  0  0  0  0  0  0
    0.7145    0.4125    0.0000 C   0  0  0  0  0  0  0  0  0  0  0  0
    0.0000    0.8250    0.0000 C   0  0  0  0  0  0  0  0  0  0  0  0
   -0.7145    0.4125    0.0000 C   0  0  0  0  0  0  0  0  0  0  0  0
   -0.7145   -0.4125    0.0000 C   0  0  0  0  0  0  0  0  0  0  0  0
    0.0000   -0.8250    0.0000 C   0  0  0  0  0  0  0  0  0  0  0  0
    1.5039   -1.6398    0.0000 C   0  0  0  0  0  0  0  0  0  0  0  0
    0.8863   -2.1875    0.0000 C   0  0  0  0  0  0  0  0  0  0  0  0
    0.0883   -1.9898    0.0000 C   0  0  0  0  0  0  0  0  0  0  0  0
   -0.4835   -2.5845    0.0000 C   0  0  0  0  0  0  0  0  0  0  0  0
   -0.2544   -3.3771    0.0000 C   0  0  0  0  0  0  0  0  0  0  0  0
   -0.7119   -3.8528    0.0000 F   0  0  0  0  0  0  0  0  0  0  0  0
    0.5465   -3.5749    0.0000 C   0  0  0  0  0  0  0  0  0  0  0  0
    1.1183   -2.9802    0.0000 C   0  0  0  0  0  0  0  0  0  0  0  0
    2.3106   -1.8126    0.0000 N   0  0  0  0  0  0  0  0  0  0  0  0
    2.6461   -2.5653    0.0000 C   0  0  0  0  0  0  0  0  0  0  0  0
    3.4670   -2.6517    0.0000 C   0  0  0  0  0  0  0  0  0  0  0  0
    3.8032   -3.4056    0.0000 C   0  0  1  0  0  0  0  0  0  0  0  0
    3.4153   -3.9396    0.0000 O   0  0  0  0  0  0  0  0  0  0  0  0
    4.6240   -3.4920    0.0000 C   0  0  0  0  0  0  0  0  0  0  0  0
    4.9602   -4.2459    0.0000 C   0  0  1  0  0  0  0  0  0  0  0  0
    4.5723   -4.7799    0.0000 O   0  0  0  0  0  0  0  0  0  0  0  0
    5.7811   -4.3323    0.0000 C   0  0  0  0  0  0  0  0  0  0  0  0
    6.1172   -5.0863    0.0000 C   0  0  0  0  0  0  0  0  0  0  0  0
    6.7736   -5.1553    0.0000 O   0  0  0  0  0  0  0  0  0  0  0  0
    5.7294   -5.6202    0.0000 O   0  0  0  0  0  0  0  0  0  0  0  0
    2.3395    0.3222    0.0000 S   0  0  0  0  0  0  0  0  0  0  0  0
    1.8462    0.7607    0.0000 O   0  0  0  0  0  0  0  0  0  0  0  0
    1.7131    0.1143    0.0000 O   0  0  0  0  0  0  0  0  0  0  0  0
    3.1229    0.5826    0.0000 N   0  0  0  0  0  0  0  0  0  0  0  0
    3.7397    0.0347    0.0000 C   0  0  0  0  0  0  0  0  0  0  0  0
    4.5226    0.2950    0.0000 C   0  0  0  0  0  0  0  0  0  0  0  0
    4.6886    1.1030    0.0000 N   0  0  0  0  0  0  0  0  0  0  0  0
    5.3149    1.3113    0.0000 C   0  0  0  0  0  0  0  0  0  0  0  0
    4.0718    1.6509    0.0000 C   0  0  0  0  0  0  0  0  0  0  0  0
    3.2889    1.3907    0.0000 C   0  0  0  0  0  0  0  0  0  0  0  0
  1  2  1  0  0  0  0
  2  3  1  0  0  0  0
  2  4  1  0  0  0  0
  4  5  2  0  0  0  0
  5  6  1  0  0  0  0
  6  7  1  0  0  0  0
  7  8  2  0  0  0  0
  8  9  1  0  0  0  0
  9 10  2  0  0  0  0
 10 11  1  0  0  0  0
 11 12  2  0  0  0  0
 12  7  1  0  0  0  0
  6 13  2  0  0  0  0
 13 14  1  0  0  0  0
 14 15  2  0  0  0  0
 15 16  1  0  0  0  0
 16 17  2  0  0  0  0
 17 18  1  0  0  0  0
 17 19  1  0  0  0  0
 19 20  2  0  0  0  0
 20 14  1  0  0  0  0
 13 21  1  0  0  0  0
 21  4  1  0  0  0  0
 21 22  1  0  0  0  0
 22 23  1  0  0  0  0
 23 24  1  0  0  0  0
 24 25  1  6  0  0  0
 24 26  1  0  0  0  0
 26 27  1  0  0  0  0
 27 28  1  6  0  0  0
 27 29  1  0  0  0  0
 29 30  1  0  0  0  0
 30 31  2  0  0  0  0
 30 32  1  0  0  0  0
  5 33  1  0  0  0  0
 33 34  2  0  0  0  0
 33 35  2  0  0  0  0
 33 36  1  0  0  0  0
 36 37  1  0  0  0  0
 37 38  1  0  0  0  0
 38 39  1  0  0  0  0
 39 40  1  0  0  0  0
 39 41  1  0  0  0  0
 41 42  1  0  0  0  0
 42 36  1  0  0  0  0
M  END
>  <Mol Weight>
601.729

>  <Formula>
C31H40FN3O6S

>  <chembl_id>
CHEMBL1207397

$$$$

  Mrv0541 06201412482D          

 42 45  0  0  1  0            999 V2000
    7.5042   -4.3125    0.0000 S   0  0  0  0  0  0  0  0  0  0  0  0
   10.4250   -1.8250    0.0000 C   0  0  0  0  0  0  0  0  0  0  0  0
   10.3417   -2.6417    0.0000 N   0  0  0  0  0  0  0  0  0  0  0  0
   11.2292   -1.6500    0.0000 N   0  0  0  0  0  0  0  0  0  0  0  0
   11.1042   -2.9750    0.0000 N   0  0  0  0  0  0  0  0  0  0  0  0
   11.6500   -2.3542    0.0000 C   0  0  0  0  0  0  0  0  0  0  0  0
    6.7917   -4.7292    0.0000 N   0  0  0  0  0  0  0  0  0  0  0  0
    8.2167   -3.8917    0.0000 C   0  0  0  0  0  0  0  0  0  0  0  0
    9.6375   -3.0625    0.0000 C   0  0  0  0  0  0  0  0  0  0  0  0
    7.9125   -5.0250    0.0000 O   0  0  0  0  0  0  0  0  0  0  0  0
    7.0875   -3.5917    0.0000 O   0  0  0  0  0  0  0  0  0  0  0  0
    9.8042   -1.2792    0.0000 O   0  0  0  0  0  0  0  0  0  0  0  0
    0.3542   -3.5167    0.0000 C   0  0  0  0  0  0  0  0  0  0  0  0
   -0.3583   -4.7542    0.0000 N   0  0  0  0  0  0  0  0  0  0  0  0
    8.9292   -4.3042    0.0000 C   0  0  0  0  0  0  0  0  0  0  0  0
    8.2042   -3.0750    0.0000 C   0  0  0  0  0  0  0  0  0  0  0  0
    8.9167   -2.6542    0.0000 C   0  0  0  0  0  0  0  0  0  0  0  0
    9.6417   -3.8875    0.0000 C   0  0  0  0  0  0  0  0  0  0  0  0
    6.0750   -4.3167    0.0000 C   0  0  0  0  0  0  0  0  0  0  0  0
    1.0667   -3.1000    0.0000 C   0  0  1  0  0  0  0  0  0  0  0  0
   11.5625   -0.8917    0.0000 C   0  0  0  0  0  0  0  0  0  0  0  0
    2.5000   -3.0917    0.0000 N   0  0  0  0  0  0  0  0  0  0  0  0
    4.6417   -3.5000    0.0000 C   0  0  0  0  0  0  0  0  0  0  0  0
    0.3542   -4.3417    0.0000 C   0  0  0  0  0  0  0  0  0  0  0  0
    6.0667   -3.4875    0.0000 C   0  0  0  0  0  0  0  0  0  0  0  0
    5.3542   -4.7292    0.0000 C   0  0  0  0  0  0  0  0  0  0  0  0
    5.3500   -3.0792    0.0000 C   0  0  0  0  0  0  0  0  0  0  0  0
    4.6417   -4.3167    0.0000 C   0  0  0  0  0  0  0  0  0  0  0  0
    1.0667   -2.2750    0.0000 O   0  0  0  0  0  0  0  0  0  0  0  0
    1.7875   -3.5042    0.0000 C   0  0  0  0  0  0  0  0  0  0  0  0
   -0.3583   -3.1042    0.0000 C   0  0  0  0  0  0  0  0  0  0  0  0
   -1.0708   -4.3417    0.0000 C   0  0  0  0  0  0  0  0  0  0  0  0
    3.2167   -3.5042    0.0000 C   0  0  0  0  0  0  0  0  0  0  0  0
    3.9292   -3.0875    0.0000 C   0  0  0  0  0  0  0  0  0  0  0  0
   12.3792   -0.8000    0.0000 C   0  0  0  0  0  0  0  0  0  0  0  0
   15.0042    1.6583    0.0000 C   0  0  0  0  0  0  0  0  0  0  0  0
   -1.0708   -3.5167    0.0000 C   0  0  0  0  0  0  0  0  0  0  0  0
   14.6792    0.9000    0.0000 C   0  0  0  0  0  0  0  0  0  0  0  0
   13.8542    0.8083    0.0000 C   0  0  0  0  0  0  0  0  0  0  0  0
   12.7125   -0.0417    0.0000 C   0  0  0  0  0  0  0  0  0  0  0  0
   13.5292    0.0500    0.0000 C   0  0  0  0  0  0  0  0  0  0  0  0
   15.8292    1.7458    0.0000 C   0  0  0  0  0  0  0  0  0  0  0  0
  2  3  1  0  0  0  0
  3  9  1  0  0  0  0
  4  2  1  0  0  0  0
  5  3  1  0  0  0  0
  6  5  2  0  0  0  0
  7  1  1  0  0  0  0
  8  1  1  0  0  0  0
  9 17  1  0  0  0  0
 10  1  2  0  0  0  0
 11  1  2  0  0  0  0
 12  2  2  0  0  0  0
 13 20  1  0  0  0  0
 14 24  2  0  0  0  0
 15  8  2  0  0  0  0
 16  8  1  0  0  0  0
 17 16  2  0  0  0  0
 18 15  1  0  0  0  0
 19  7  1  0  0  0  0
 20 30  1  0  0  0  0
 21  4  1  0  0  0  0
 22 33  1  0  0  0  0
 23 28  2  0  0  0  0
 24 13  1  0  0  0  0
 25 19  1  0  0  0  0
 26 19  2  0  0  0  0
 27 25  2  0  0  0  0
 28 26  1  0  0  0  0
 20 29  1  1  0  0  0
 30 22  1  0  0  0  0
 31 13  2  0  0  0  0
 32 37  2  0  0  0  0
 33 34  1  0  0  0  0
 34 23  1  0  0  0  0
 35 21  1  0  0  0  0
 36 38  1  0  0  0  0
 37 31  1  0  0  0  0
 38 39  1  0  0  0  0
 39 41  1  0  0  0  0
 40 35  1  0  0  0  0
 41 40  1  0  0  0  0
 42 36  1  0  0  0  0
  9 18  2  0  0  0  0
 23 27  1  0  0  0  0
  4  6  1  0  0  0  0
 32 14  1  0  0  0  0
M  END
>  <Mol Weight>
592.752

>  <Formula>
C31H40N6O4S

>  <chembl_id>
CHEMBL163579

$$$$

  Mrv0541 06201412482D          

 45 48  0  0  0  0            999 V2000
    5.4393    0.3239    0.0000 C   0  0  0  0  0  0  0  0  0  0  0  0
    6.1579    0.7347    0.0000 N   0  0  0  0  0  0  0  0  0  0  0  0
    6.8719    0.3239    0.0000 C   0  0  2  0  0  0  0  0  0  0  0  0
    7.5859    0.7347    0.0000 C   0  0  0  0  0  0  0  0  0  0  0  0
    8.2999    0.3239    0.0000 N   0  0  0  0  0  0  0  0  0  0  0  0
    9.0140    0.7347    0.0000 C   0  0  2  0  0  0  0  0  0  0  0  0
    9.7325    0.3239    0.0000 C   0  0  0  0  0  0  0  0  0  0  0  0
    7.5859    1.5606    0.0000 O   0  0  0  0  0  0  0  0  0  0  0  0
    4.7253    0.7345    0.0000 C   0  0  2  0  0  0  0  0  0  0  0  0
    5.4393   -0.5019    0.0000 O   0  0  0  0  0  0  0  0  0  0  0  0
    6.8719   -0.5019    0.0000 C   0  0  0  0  0  0  0  0  0  0  0  0
    9.7325   -0.5019    0.0000 O   0  0  0  0  0  0  0  0  0  0  0  0
    9.0140    1.5606    0.0000 C   0  0  0  0  0  0  0  0  0  0  0  0
    9.7325    1.9712    0.0000 C   0  0  0  0  0  0  0  0  0  0  0  0
   10.4464    1.5580    0.0000 C   0  0  0  0  0  0  0  0  0  0  0  0
   11.1599    1.9679    0.0000 C   0  0  0  0  0  0  0  0  0  0  0  0
   11.1603    2.7948    0.0000 C   0  0  0  0  0  0  0  0  0  0  0  0
   10.4409    3.2099    0.0000 C   0  0  0  0  0  0  0  0  0  0  0  0
    9.7306    2.7929    0.0000 C   0  0  0  0  0  0  0  0  0  0  0  0
    4.7251    1.5604    0.0000 C   0  0  0  0  0  0  0  0  0  0  0  0
    4.0114    0.3236    0.0000 N   0  0  0  0  0  0  0  0  0  0  0  0
    3.2972    0.7341    0.0000 C   0  0  0  0  0  0  0  0  0  0  0  0
    3.2970    1.5600    0.0000 O   0  0  0  0  0  0  0  0  0  0  0  0
    7.5859   -0.9172    0.0000 C   0  0  0  0  0  0  0  0  0  0  0  0
    7.5810   -1.7442    0.0000 C   0  0  0  0  0  0  0  0  0  0  0  0
    8.2941   -2.1550    0.0000 C   0  0  0  0  0  0  0  0  0  0  0  0
    9.0138   -1.7441    0.0000 C   0  0  0  0  0  0  0  0  0  0  0  0
    9.0108   -0.9136    0.0000 C   0  0  0  0  0  0  0  0  0  0  0  0
    8.2924   -0.5024    0.0000 C   0  0  0  0  0  0  0  0  0  0  0  0
    5.4389    1.9718    0.0000 C   0  0  0  0  0  0  0  0  0  0  0  0
   10.4466    0.7347    0.0000 O   0  0  0  0  0  0  0  0  0  0  0  0
    6.1544    1.5607    0.0000 C   0  0  0  0  0  0  0  0  0  0  0  0
    6.8676    1.9714    0.0000 C   0  0  0  0  0  0  0  0  0  0  0  0
    6.8674    2.7986    0.0000 C   0  0  0  0  0  0  0  0  0  0  0  0
    6.1474    3.2132    0.0000 C   0  0  0  0  0  0  0  0  0  0  0  0
    5.4371    2.7953    0.0000 C   0  0  0  0  0  0  0  0  0  0  0  0
    2.5834    0.3233    0.0000 O   0  0  0  0  0  0  0  0  0  0  0  0
    1.8646    0.7338    0.0000 C   0  0  0  0  0  0  0  0  0  0  0  0
    1.1508    0.3228    0.0000 C   0  0  0  0  0  0  0  0  0  0  0  0
    0.4385    0.7369    0.0000 C   0  0  0  0  0  0  0  0  0  0  0  0
   -0.2749    0.3221    0.0000 C   0  0  0  0  0  0  0  0  0  0  0  0
   -0.2752   -0.5001    0.0000 C   0  0  0  0  0  0  0  0  0  0  0  0
    0.4444   -0.9151    0.0000 C   0  0  0  0  0  0  0  0  0  0  0  0
    1.1546   -0.4978    0.0000 C   0  0  0  0  0  0  0  0  0  0  0  0
   11.8738    3.2111    0.0000 O   0  0  0  0  0  0  0  0  0  0  0  0
  5  6  1  0  0  0  0
 22 23  2  0  0  0  0
  7 12  2  0  0  0  0
 11 24  1  0  0  0  0
  1  2  1  0  0  0  0
 24 25  2  0  0  0  0
  6 13  1  1  0  0  0
 25 26  1  0  0  0  0
  6  7  1  0  0  0  0
 26 27  2  0  0  0  0
 13 14  1  0  0  0  0
 27 28  1  0  0  0  0
  3  4  1  0  0  0  0
 28 29  2  0  0  0  0
 29 24  1  0  0  0  0
 14 15  2  0  0  0  0
 20 30  1  0  0  0  0
  4  8  2  0  0  0  0
  7 31  1  0  0  0  0
 15 16  1  0  0  0  0
 30 32  2  0  0  0  0
 32 33  1  0  0  0  0
 16 17  2  0  0  0  0
 33 34  2  0  0  0  0
  1  9  1  0  0  0  0
 34 35  1  0  0  0  0
 17 18  1  0  0  0  0
 35 36  2  0  0  0  0
 36 30  1  0  0  0  0
  4  5  1  0  0  0  0
 22 37  1  0  0  0  0
 18 19  2  0  0  0  0
 37 38  1  0  0  0  0
 19 14  1  0  0  0  0
 38 39  1  0  0  0  0
  1 10  2  0  0  0  0
 39 40  2  0  0  0  0
  9 20  1  1  0  0  0
 40 41  1  0  0  0  0
  2  3  1  0  0  0  0
 41 42  2  0  0  0  0
  9 21  1  0  0  0  0
 42 43  1  0  0  0  0
  3 11  1  6  0  0  0
 43 44  2  0  0  0  0
 44 39  1  0  0  0  0
 21 22  1  0  0  0  0
 17 45  1  0  0  0  0
M  END
>  <Mol Weight>
609.6683

>  <Formula>
C35H35N3O7

>  <chembl_id>
CHEMBL1075761

$$$$

  Mrv0541 06201412482D          

 41 45  0  0  0  0            999 V2000
   18.9069  -11.0958    0.0000 C   0  0  0  0  0  0  0  0  0  0  0  0
   18.9057  -11.9232    0.0000 C   0  0  0  0  0  0  0  0  0  0  0  0
   19.6206  -12.3360    0.0000 C   0  0  0  0  0  0  0  0  0  0  0  0
   20.3370  -11.9227    0.0000 C   0  0  0  0  0  0  0  0  0  0  0  0
   20.3341  -11.0922    0.0000 C   0  0  0  0  0  0  0  0  0  0  0  0
   19.6187  -10.6830    0.0000 C   0  0  0  0  0  0  0  0  0  0  0  0
   19.6222  -13.1588    0.0000 C   0  0  0  0  0  0  0  0  0  0  0  0
   18.9060  -13.5706    0.0000 N   0  0  0  0  0  0  0  0  0  0  0  0
   18.9055  -14.3948    0.0000 C   0  0  0  0  0  0  0  0  0  0  0  0
   19.6204  -14.8083    0.0000 N   0  0  0  0  0  0  0  0  0  0  0  0
   20.3373  -14.3915    0.0000 C   0  0  0  0  0  0  0  0  0  0  0  0
   20.3344  -13.5687    0.0000 C   0  0  0  0  0  0  0  0  0  0  0  0
   19.6163   -9.8580    0.0000 O   0  0  0  0  0  0  0  0  0  0  0  0
   18.1910  -12.3351    0.0000 O   0  0  0  0  0  0  0  0  0  0  0  0
   21.0532  -14.8017    0.0000 C   0  0  0  0  0  0  0  0  0  0  0  0
   21.0478  -13.1544    0.0000 C   0  0  0  0  0  0  0  0  0  0  0  0
   21.7633  -13.5651    0.0000 N   0  0  0  0  0  0  0  0  0  0  0  0
   21.0457  -12.3294    0.0000 O   0  0  0  0  0  0  0  0  0  0  0  0
   22.4767  -13.1508    0.0000 C   0  0  0  0  0  0  0  0  0  0  0  0
   23.1902  -13.5656    0.0000 C   0  0  0  0  0  0  0  0  0  0  0  0
   23.9032  -13.1520    0.0000 C   0  0  0  0  0  0  0  0  0  0  0  0
   23.9016  -12.3261    0.0000 C   0  0  0  0  0  0  0  0  0  0  0  0
   23.1810  -11.9156    0.0000 C   0  0  0  0  0  0  0  0  0  0  0  0
   22.4710  -12.3315    0.0000 C   0  0  0  0  0  0  0  0  0  0  0  0
   23.1767  -11.0871    0.0000 N   0  3  0  0  0  0  0  0  0  0  0  0
   22.4597  -10.6789    0.0000 O   0  0  0  0  0  0  0  0  0  0  0  0
   23.8887  -10.6703    0.0000 O   0  5  0  0  0  0  0  0  0  0  0  0
   18.1907  -14.8068    0.0000 N   0  0  0  0  0  0  0  0  0  0  0  0
   17.4769  -14.3934    0.0000 N   0  0  0  0  0  0  0  0  0  0  0  0
   17.2234  -13.6053    0.0000 C   0  0  0  0  0  0  0  0  0  0  0  0
   16.3984  -13.6007    0.0000 S   0  0  0  0  0  0  0  0  0  0  0  0
   16.1391  -14.3836    0.0000 C   0  0  0  0  0  0  0  0  0  0  0  0
   16.8038  -14.8725    0.0000 C   0  0  0  0  0  0  0  0  0  0  0  0
   17.7111  -12.9400    0.0000 S   0  0  0  0  0  0  0  0  0  0  0  0
   16.7975  -15.6974    0.0000 O   0  0  0  0  0  0  0  0  0  0  0  0
   15.4182  -14.7847    0.0000 C   0  0  0  0  0  0  0  0  0  0  0  0
   15.4051  -15.6096    0.0000 C   0  0  0  0  0  0  0  0  0  0  0  0
   14.7279  -16.0870    0.0000 O   0  0  0  0  0  0  0  0  0  0  0  0
   14.9704  -16.8756    0.0000 C   0  0  0  0  0  0  0  0  0  0  0  0
   15.7953  -16.8887    0.0000 C   0  0  0  0  0  0  0  0  0  0  0  0
   16.0626  -16.1082    0.0000 C   0  0  0  0  0  0  0  0  0  0  0  0
 19 20  2  0  0  0  0
  2  3  1  0  0  0  0
 20 21  1  0  0  0  0
 10 11  1  0  0  0  0
 21 22  2  0  0  0  0
  5  6  2  0  0  0  0
 22 23  1  0  0  0  0
 11 12  2  0  0  0  0
 23 24  2  0  0  0  0
 24 19  1  0  0  0  0
 12  7  1  0  0  0  0
  3  7  1  0  0  0  0
  6  1  1  0  0  0  0
 25 26  2  0  0  0  0
 25 27  1  0  0  0  0
 23 25  1  0  0  0  0
  6 13  1  0  0  0  0
  9 28  1  0  0  0  0
  1  2  2  0  0  0  0
 28 29  1  0  0  0  0
 29 30  1  0  0  0  0
  2 14  1  0  0  0  0
  3  4  2  0  0  0  0
 11 15  1  0  0  0  0
  7  8  1  0  0  0  0
 30 31  1  0  0  0  0
 31 32  1  0  0  0  0
 32 33  1  0  0  0  0
 33 29  1  0  0  0  0
 12 16  1  0  0  0  0
 30 34  2  0  0  0  0
 33 35  2  0  0  0  0
 16 17  1  0  0  0  0
 32 36  2  0  0  0  0
  8  9  1  0  0  0  0
 36 37  1  0  0  0  0
 37 38  1  0  0  0  0
 16 18  2  0  0  0  0
  4  5  1  0  0  0  0
 17 19  1  0  0  0  0
  9 10  2  0  0  0  0
 38 39  1  0  0  0  0
 39 40  2  0  0  0  0
 40 41  1  0  0  0  0
 41 37  2  0  0  0  0
M  CHG  2  25   1  27  -1
M  END
>  <Mol Weight>
592.603

>  <Formula>
C26H20N6O7S2

>  <chembl_id>
CHEMBL1077107

$$$$

  Mrv0541 06201412482D          

 37 40  0  0  0  0            999 V2000
    6.4152  -19.8958    0.0000 C   0  0  0  0  0  0  0  0  0  0  0  0
    6.4141  -20.7232    0.0000 C   0  0  0  0  0  0  0  0  0  0  0  0
    7.1289  -21.1360    0.0000 C   0  0  0  0  0  0  0  0  0  0  0  0
    7.8453  -20.7227    0.0000 N   0  0  0  0  0  0  0  0  0  0  0  0
    7.8425  -19.8922    0.0000 C   0  0  0  0  0  0  0  0  0  0  0  0
    7.1271  -19.4830    0.0000 N   0  0  0  0  0  0  0  0  0  0  0  0
    8.5554  -19.4770    0.0000 N   0  0  0  0  0  0  0  0  0  0  0  0
    7.1287  -21.9610    0.0000 O   0  0  0  0  0  0  0  0  0  0  0  0
    9.2714  -19.8868    0.0000 C   0  0  0  0  0  0  0  0  0  0  0  0
    9.2719  -20.7135    0.0000 C   0  0  0  0  0  0  0  0  0  0  0  0
    9.9838  -21.1233    0.0000 C   0  0  0  0  0  0  0  0  0  0  0  0
   10.6992  -20.7116    0.0000 N   0  0  0  0  0  0  0  0  0  0  0  0
   10.6980  -19.8856    0.0000 C   0  0  0  0  0  0  0  0  0  0  0  0
    9.9816  -19.4713    0.0000 C   0  0  0  0  0  0  0  0  0  0  0  0
   11.4136  -21.1241    0.0000 C   0  0  0  0  0  0  0  0  0  0  0  0
   12.1281  -20.7116    0.0000 C   0  0  0  0  0  0  0  0  0  0  0  0
   12.8398  -21.1245    0.0000 C   0  0  0  0  0  0  0  0  0  0  0  0
   13.5538  -20.7127    0.0000 C   0  0  0  0  0  0  0  0  0  0  0  0
   13.5543  -19.8868    0.0000 C   0  0  0  0  0  0  0  0  0  0  0  0
   12.8348  -19.4745    0.0000 C   0  0  0  0  0  0  0  0  0  0  0  0
   12.1237  -19.8887    0.0000 C   0  0  0  0  0  0  0  0  0  0  0  0
    7.8431  -22.3737    0.0000 C   0  0  0  0  0  0  0  0  0  0  0  0
    7.8387  -23.1969    0.0000 C   0  0  0  0  0  0  0  0  0  0  0  0
    8.5522  -23.6095    0.0000 C   0  0  0  0  0  0  0  0  0  0  0  0
    9.2678  -23.1971    0.0000 C   0  0  0  0  0  0  0  0  0  0  0  0
    9.2653  -22.3679    0.0000 C   0  0  0  0  0  0  0  0  0  0  0  0
    8.5512  -21.9590    0.0000 C   0  0  0  0  0  0  0  0  0  0  0  0
    8.5472  -21.1340    0.0000 C   0  0  0  0  0  0  0  0  0  0  0  0
    7.1230  -23.6073    0.0000 C   0  0  0  0  0  0  0  0  0  0  0  0
    9.9827  -23.6089    0.0000 C   0  0  0  0  0  0  0  0  0  0  0  0
   10.7007  -24.0230    0.0000 N   0  0  0  0  0  0  0  0  0  0  0  0
   12.8388  -21.9495    0.0000 Cl  0  0  0  0  0  0  0  0  0  0  0  0
   14.2682  -19.4734    0.0000 S   0  0  0  0  0  0  0  0  0  0  0  0
   14.9832  -19.8850    0.0000 O   0  0  0  0  0  0  0  0  0  0  0  0
   14.2671  -18.6484    0.0000 O   0  0  0  0  0  0  0  0  0  0  0  0
   14.9792  -19.0542    0.0000 C   0  0  0  0  0  0  0  0  0  0  0  0
    5.6993  -21.1351    0.0000 Br  0  0  0  0  0  0  0  0  0  0  0  0
 17 18  1  0  0  0  0
  7  9  1  0  0  0  0
 18 19  2  0  0  0  0
  9 10  1  0  0  0  0
 19 20  1  0  0  0  0
  4  5  1  0  0  0  0
 20 21  2  0  0  0  0
 21 16  1  0  0  0  0
  2  3  1  0  0  0  0
  8 22  1  0  0  0  0
  5  6  2  0  0  0  0
 22 23  2  0  0  0  0
  6  1  1  0  0  0  0
 23 24  1  0  0  0  0
  1  2  2  0  0  0  0
 24 25  2  0  0  0  0
  9 14  1  0  0  0  0
 25 26  1  0  0  0  0
 10 11  1  0  0  0  0
 26 27  2  0  0  0  0
 27 22  1  0  0  0  0
 11 12  1  0  0  0  0
 27 28  1  0  0  0  0
 12 13  1  0  0  0  0
 23 29  1  0  0  0  0
 13 14  1  0  0  0  0
 25 30  1  0  0  0  0
  5  7  1  0  0  0  0
 30 31  3  0  0  0  0
 12 15  1  0  0  0  0
 17 32  1  0  0  0  0
  3  4  2  0  0  0  0
 19 33  1  0  0  0  0
 15 16  1  0  0  0  0
 33 34  2  0  0  0  0
  3  8  1  0  0  0  0
 33 35  2  0  0  0  0
 16 17  2  0  0  0  0
 33 36  1  0  0  0  0
  2 37  1  0  0  0  0
M  END
>  <Mol Weight>
604.946

>  <Formula>
C26H27BrClN5O3S

>  <chembl_id>
CHEMBL1170005

$$$$

  Mrv0541 06201412482D          

 42 45  0  0  0  0            999 V2000
    3.9304   -1.5508    0.0000 C   0  0  0  0  0  0  0  0  0  0  0  0
    3.5440   -1.0156    0.0000 C   0  0  0  0  0  0  0  0  0  0  0  0
    3.8145   -0.4136    0.0000 C   0  0  0  0  0  0  0  0  0  0  0  0
    2.7242   -1.0988    0.0000 N   0  0  0  0  0  0  0  0  0  0  0  0
    2.1731   -0.4848    0.0000 C   0  0  0  0  0  0  0  0  0  0  0  0
    2.3378    0.3226    0.0000 C   0  0  0  0  0  0  0  0  0  0  0  0
    1.7202    0.8702    0.0000 C   0  0  0  0  0  0  0  0  0  0  0  0
    1.8852    1.6790    0.0000 C   0  0  1  0  0  0  0  0  0  0  0  0
    2.5113    1.8879    0.0000 O   0  0  0  0  0  0  0  0  0  0  0  0
    1.2676    2.2267    0.0000 C   0  0  0  0  0  0  0  0  0  0  0  0
    1.4326    3.0355    0.0000 C   0  0  1  0  0  0  0  0  0  0  0  0
    2.0587    3.2444    0.0000 O   0  0  0  0  0  0  0  0  0  0  0  0
    0.8150    3.5832    0.0000 C   0  0  0  0  0  0  0  0  0  0  0  0
    0.9800    4.3920    0.0000 C   0  0  0  0  0  0  0  0  0  0  0  0
    0.4863    4.8299    0.0000 O   0  0  0  0  0  0  0  0  0  0  0  0
    1.6061    4.6009    0.0000 O   0  0  0  0  0  0  0  0  0  0  0  0
    1.4293   -0.8252    0.0000 C   0  0  0  0  0  0  0  0  0  0  0  0
    0.7144   -0.4125    0.0000 C   0  0  0  0  0  0  0  0  0  0  0  0
    0.7144    0.4125    0.0000 C   0  0  0  0  0  0  0  0  0  0  0  0
    0.0000    0.8250    0.0000 C   0  0  0  0  0  0  0  0  0  0  0  0
   -0.7144    0.4125    0.0000 C   0  0  0  0  0  0  0  0  0  0  0  0
   -1.2861    0.7425    0.0000 F   0  0  0  0  0  0  0  0  0  0  0  0
   -0.7144   -0.4125    0.0000 C   0  0  0  0  0  0  0  0  0  0  0  0
    0.0000   -0.8250    0.0000 C   0  0  0  0  0  0  0  0  0  0  0  0
    1.5039   -1.6398    0.0000 C   0  0  0  0  0  0  0  0  0  0  0  0
    0.8863   -2.1875    0.0000 C   0  0  0  0  0  0  0  0  0  0  0  0
    0.0883   -1.9898    0.0000 C   0  0  0  0  0  0  0  0  0  0  0  0
   -0.4835   -2.5845    0.0000 C   0  0  0  0  0  0  0  0  0  0  0  0
   -0.2544   -3.3771    0.0000 C   0  0  0  0  0  0  0  0  0  0  0  0
    0.5465   -3.5749    0.0000 C   0  0  0  0  0  0  0  0  0  0  0  0
    1.1183   -2.9802    0.0000 C   0  0  0  0  0  0  0  0  0  0  0  0
    2.3105   -1.8126    0.0000 C   0  0  0  0  0  0  0  0  0  0  0  0
    2.6461   -2.5653    0.0000 C   0  0  0  0  0  0  0  0  0  0  0  0
    2.2582   -3.0992    0.0000 O   0  0  0  0  0  0  0  0  0  0  0  0
    3.4670   -2.6517    0.0000 N   0  0  0  0  0  0  0  0  0  0  0  0
    3.8031   -3.4055    0.0000 C   0  0  0  0  0  0  0  0  0  0  0  0
    4.6240   -3.4920    0.0000 C   0  0  0  0  0  0  0  0  0  0  0  0
    4.9611   -4.2450    0.0000 C   0  0  0  0  0  0  0  0  0  0  0  0
    5.7817   -4.3297    0.0000 C   0  0  0  0  0  0  0  0  0  0  0  0
    6.2654   -3.6613    0.0000 C   0  0  0  0  0  0  0  0  0  0  0  0
    5.9284   -2.9083    0.0000 C   0  0  0  0  0  0  0  0  0  0  0  0
    5.1077   -2.8236    0.0000 C   0  0  0  0  0  0  0  0  0  0  0  0
  1  2  1  0  0  0  0
  2  3  1  0  0  0  0
  2  4  1  0  0  0  0
  4  5  1  0  0  0  0
  5  6  1  0  0  0  0
  6  7  1  0  0  0  0
  7  8  1  0  0  0  0
  8  9  1  6  0  0  0
  8 10  1  0  0  0  0
 10 11  1  0  0  0  0
 11 12  1  6  0  0  0
 11 13  1  0  0  0  0
 13 14  1  0  0  0  0
 14 15  2  0  0  0  0
 14 16  1  0  0  0  0
  5 17  2  0  0  0  0
 17 18  1  0  0  0  0
 18 19  2  0  0  0  0
 19 20  1  0  0  0  0
 20 21  2  0  0  0  0
 21 22  1  0  0  0  0
 21 23  1  0  0  0  0
 23 24  2  0  0  0  0
 24 18  1  0  0  0  0
 17 25  1  0  0  0  0
 25 26  1  0  0  0  0
 26 27  2  0  0  0  0
 27 28  1  0  0  0  0
 28 29  2  0  0  0  0
 29 30  1  0  0  0  0
 30 31  2  0  0  0  0
 31 26  1  0  0  0  0
 25 32  2  0  0  0  0
 32  4  1  0  0  0  0
 32 33  1  0  0  0  0
 33 34  2  0  0  0  0
 33 35  1  0  0  0  0
 35 36  1  0  0  0  0
 36 37  1  0  0  0  0
 37 38  2  0  0  0  0
 38 39  1  0  0  0  0
 39 40  2  0  0  0  0
 40 41  1  0  0  0  0
 41 42  2  0  0  0  0
 42 37  1  0  0  0  0
M  END
>  <Mol Weight>
572.6664

>  <Formula>
C34H37FN2O5

>  <chembl_id>
CHEMBL1207360

$$$$

  Mrv0541 06201412482D          

 42 47  0  0  0  0            999 V2000
   19.2731  -10.3443    0.0000 N   0  0  0  0  0  0  0  0  0  0  0  0
   19.2720  -11.1726    0.0000 C   0  0  0  0  0  0  0  0  0  0  0  0
   19.9876  -11.5858    0.0000 N   0  0  0  0  0  0  0  0  0  0  0  0
   20.7048  -11.1721    0.0000 C   0  0  0  0  0  0  0  0  0  0  0  0
   20.7020  -10.3407    0.0000 N   0  0  0  0  0  0  0  0  0  0  0  0
   19.9858   -9.9310    0.0000 C   0  0  0  0  0  0  0  0  0  0  0  0
   18.5584  -11.5852    0.0000 C   0  0  0  0  0  0  0  0  0  0  0  0
   17.8432  -11.1700    0.0000 C   0  0  0  0  0  0  0  0  0  0  0  0
   17.1282  -11.5816    0.0000 C   0  0  0  0  0  0  0  0  0  0  0  0
   17.1271  -12.4084    0.0000 C   0  0  0  0  0  0  0  0  0  0  0  0
   17.8469  -12.8217    0.0000 C   0  0  0  0  0  0  0  0  0  0  0  0
   18.5591  -12.4077    0.0000 C   0  0  0  0  0  0  0  0  0  0  0  0
   19.9857   -9.1087    0.0000 N   0  0  0  0  0  0  0  0  0  0  0  0
   20.7015   -8.6948    0.0000 C   0  0  0  0  0  0  0  0  0  0  0  0
   20.7011   -7.8725    0.0000 C   0  0  0  0  0  0  0  0  0  0  0  0
   19.9864   -7.4578    0.0000 O   0  0  0  0  0  0  0  0  0  0  0  0
   19.2705   -7.8716    0.0000 C   0  0  0  0  0  0  0  0  0  0  0  0
   19.2693   -8.7002    0.0000 C   0  0  0  0  0  0  0  0  0  0  0  0
   21.4183  -11.5831    0.0000 C   0  0  0  0  0  0  0  0  0  0  0  0
   19.5499   -8.0919    0.0000 C   0  0  0  0  0  0  0  0  0  0  0  0
   20.3633   -8.0878    0.0000 C   0  0  0  0  0  0  0  0  0  0  0  0
   16.4120  -12.8217    0.0000 N   0  0  0  0  0  0  0  0  0  0  0  0
   15.6966  -12.4092    0.0000 C   0  0  0  0  0  0  0  0  0  0  0  0
   14.9816  -12.8225    0.0000 N   0  0  0  0  0  0  0  0  0  0  0  0
   15.6962  -11.5833    0.0000 O   0  0  0  0  0  0  0  0  0  0  0  0
   14.2661  -12.4100    0.0000 C   0  0  0  0  0  0  0  0  0  0  0  0
   14.2694  -11.5839    0.0000 C   0  0  0  0  0  0  0  0  0  0  0  0
   13.5548  -11.1715    0.0000 C   0  0  0  0  0  0  0  0  0  0  0  0
   12.8388  -11.5848    0.0000 C   0  0  0  0  0  0  0  0  0  0  0  0
   12.8419  -12.4150    0.0000 C   0  0  0  0  0  0  0  0  0  0  0  0
   13.5571  -12.8237    0.0000 C   0  0  0  0  0  0  0  0  0  0  0  0
   21.4129  -12.4030    0.0000 C   0  0  0  0  0  0  0  0  0  0  0  0
   22.1224  -12.8139    0.0000 C   0  0  0  0  0  0  0  0  0  0  0  0
   22.8376  -12.4050    0.0000 O   0  0  0  0  0  0  0  0  0  0  0  0
   22.8387  -11.5806    0.0000 C   0  0  0  0  0  0  0  0  0  0  0  0
   22.1247  -11.1651    0.0000 C   0  0  0  0  0  0  0  0  0  0  0  0
   12.1228  -11.1732    0.0000 O   0  0  0  0  0  0  0  0  0  0  0  0
   11.4084  -11.5875    0.0000 C   0  0  0  0  0  0  0  0  0  0  0  0
   10.6923  -11.1759    0.0000 C   0  0  0  0  0  0  0  0  0  0  0  0
    9.9778  -11.5901    0.0000 N   0  0  0  0  0  0  0  0  0  0  0  0
    9.2620  -11.1786    0.0000 C   0  0  0  0  0  0  0  0  0  0  0  0
    9.9794  -12.4160    0.0000 C   0  0  0  0  0  0  0  0  0  0  0  0
 18 20  1  0  0  0  0
  2  3  1  0  0  0  0
 20 21  1  0  0  0  0
 21 14  1  0  0  0  0
 10 11  1  0  0  0  0
 10 22  1  0  0  0  0
  5  6  2  0  0  0  0
 22 23  1  0  0  0  0
 11 12  2  0  0  0  0
 23 24  1  0  0  0  0
 12  7  1  0  0  0  0
 23 25  2  0  0  0  0
  2  7  1  0  0  0  0
 24 26  1  0  0  0  0
 13 14  1  0  0  0  0
 26 27  2  0  0  0  0
  6  1  1  0  0  0  0
 27 28  1  0  0  0  0
  1  2  2  0  0  0  0
 28 29  2  0  0  0  0
  3  4  2  0  0  0  0
 29 30  1  0  0  0  0
  7  8  2  0  0  0  0
 30 31  2  0  0  0  0
 31 26  1  0  0  0  0
 19 32  1  0  0  0  0
  8  9  1  0  0  0  0
 13 18  1  0  0  0  0
 14 15  1  0  0  0  0
 15 16  1  0  0  0  0
 19 36  1  0  0  0  0
 32 33  1  0  0  0  0
 33 34  1  0  0  0  0
 34 35  1  0  0  0  0
 35 36  1  0  0  0  0
 16 17  1  0  0  0  0
 29 37  1  0  0  0  0
 17 18  1  0  0  0  0
 37 38  1  0  0  0  0
  6 13  1  0  0  0  0
 38 39  1  0  0  0  0
  4  5  1  0  0  0  0
 39 40  1  0  0  0  0
  4 19  1  0  0  0  0
 40 41  1  0  0  0  0
  9 10  2  0  0  0  0
 40 42  1  0  0  0  0
M  END
>  <Mol Weight>
573.6859

>  <Formula>
C31H39N7O4

>  <chembl_id>
CHEMBL1091359

$$$$

  Mrv0541 06201412482D          

 42 47  0  0  0  0            999 V2000
   11.1652  -26.6750    0.0000 C   0  0  0  0  0  0  0  0  0  0  0  0
   11.1641  -27.5023    0.0000 N   0  0  0  0  0  0  0  0  0  0  0  0
   11.8789  -27.9152    0.0000 C   0  0  0  0  0  0  0  0  0  0  0  0
   12.5953  -27.5019    0.0000 C   0  0  0  0  0  0  0  0  0  0  0  0
   12.5925  -26.6713    0.0000 C   0  0  0  0  0  0  0  0  0  0  0  0
   11.8771  -26.2622    0.0000 C   0  0  0  0  0  0  0  0  0  0  0  0
   13.3105  -27.9132    0.0000 N   0  0  0  0  0  0  0  0  0  0  0  0
   14.0243  -27.4996    0.0000 C   0  0  0  0  0  0  0  0  0  0  0  0
   14.7394  -27.9110    0.0000 N   0  0  0  0  0  0  0  0  0  0  0  0
   14.0230  -26.6746    0.0000 O   0  0  0  0  0  0  0  0  0  0  0  0
   15.4532  -27.4974    0.0000 C   0  0  0  0  0  0  0  0  0  0  0  0
   16.1670  -27.9101    0.0000 C   0  0  0  0  0  0  0  0  0  0  0  0
   16.8804  -27.4972    0.0000 C   0  0  0  0  0  0  0  0  0  0  0  0
   16.8795  -26.6713    0.0000 C   0  0  0  0  0  0  0  0  0  0  0  0
   16.1594  -26.2601    0.0000 C   0  0  0  0  0  0  0  0  0  0  0  0
   15.4490  -26.6754    0.0000 C   0  0  0  0  0  0  0  0  0  0  0  0
   17.5893  -26.2576    0.0000 C   0  0  0  0  0  0  0  0  0  0  0  0
   18.3052  -26.6698    0.0000 N   0  0  0  0  0  0  0  0  0  0  0  0
   19.0180  -26.2559    0.0000 C   0  0  0  0  0  0  0  0  0  0  0  0
   19.0161  -25.4300    0.0000 N   0  0  0  0  0  0  0  0  0  0  0  0
   18.2954  -25.0198    0.0000 C   0  0  0  0  0  0  0  0  0  0  0  0
   17.5855  -25.4360    0.0000 N   0  0  0  0  0  0  0  0  0  0  0  0
   18.2925  -24.1967    0.0000 N   0  0  0  0  0  0  0  0  0  0  0  0
   19.0061  -23.7808    0.0000 C   0  0  1  0  0  0  0  0  0  0  0  0
   19.0028  -22.9594    0.0000 C   0  0  0  0  0  0  0  0  0  0  0  0
   18.2875  -22.5477    0.0000 O   0  0  0  0  0  0  0  0  0  0  0  0
   17.5739  -22.9635    0.0000 C   0  0  0  0  0  0  0  0  0  0  0  0
   17.5755  -23.7911    0.0000 C   0  0  0  0  0  0  0  0  0  0  0  0
   19.7222  -24.1904    0.0000 C   0  0  0  0  0  0  0  0  0  0  0  0
   19.7333  -26.6667    0.0000 C   0  0  0  0  0  0  0  0  0  0  0  0
   19.7333  -27.4926    0.0000 C   0  0  0  0  0  0  0  0  0  0  0  0
   20.4447  -27.9033    0.0000 C   0  0  0  0  0  0  0  0  0  0  0  0
   21.1606  -27.4926    0.0000 O   0  0  0  0  0  0  0  0  0  0  0  0
   21.1606  -26.6666    0.0000 C   0  0  0  0  0  0  0  0  0  0  0  0
   20.4447  -26.2514    0.0000 C   0  0  0  0  0  0  0  0  0  0  0  0
   10.4507  -26.2626    0.0000 N   0  0  0  0  0  0  0  0  0  0  0  0
   10.4532  -25.4368    0.0000 C   0  0  0  0  0  0  0  0  0  0  0  0
    9.7427  -25.0246    0.0000 C   0  0  0  0  0  0  0  0  0  0  0  0
    9.0259  -25.4337    0.0000 N   0  0  0  0  0  0  0  0  0  0  0  0
    9.0241  -26.2597    0.0000 C   0  0  0  0  0  0  0  0  0  0  0  0
    9.7391  -26.6765    0.0000 C   0  0  0  0  0  0  0  0  0  0  0  0
    8.3129  -25.0187    0.0000 C   0  0  0  0  0  0  0  0  0  0  0  0
 20 21  1  0  0  0  0
  2  3  2  0  0  0  0
 21 22  2  0  0  0  0
 22 17  1  0  0  0  0
 14 17  1  0  0  0  0
 23 24  1  0  0  0  0
  9 11  1  0  0  0  0
  5  6  1  0  0  0  0
 11 12  2  0  0  0  0
  6  1  2  0  0  0  0
 12 13  1  0  0  0  0
  1  2  1  0  0  0  0
 23 28  1  0  0  0  0
 24 25  1  0  0  0  0
 25 26  1  0  0  0  0
 26 27  1  0  0  0  0
 27 28  1  0  0  0  0
 21 23  1  0  0  0  0
 13 14  2  0  0  0  0
 24 29  1  1  0  0  0
 30 31  1  0  0  0  0
  4  7  1  0  0  0  0
 14 15  1  0  0  0  0
  3  4  1  0  0  0  0
 15 16  2  0  0  0  0
 16 11  1  0  0  0  0
  7  8  1  0  0  0  0
 30 35  1  0  0  0  0
 31 32  1  0  0  0  0
 32 33  1  0  0  0  0
 33 34  1  0  0  0  0
 34 35  1  0  0  0  0
 19 30  1  0  0  0  0
  1 36  1  0  0  0  0
 36 37  1  0  0  0  0
 17 18  2  0  0  0  0
  8  9  1  0  0  0  0
 18 19  1  0  0  0  0
  4  5  2  0  0  0  0
 19 20  2  0  0  0  0
 36 41  1  0  0  0  0
 37 38  1  0  0  0  0
 38 39  1  0  0  0  0
 39 40  1  0  0  0  0
 40 41  1  0  0  0  0
  8 10  2  0  0  0  0
 39 42  1  0  0  0  0
M  END
>  <Mol Weight>
573.6892

>  <Formula>
C30H39N9O3

>  <chembl_id>
CHEMBL1092041

$$$$

  Mrv0541 06201412482D          

 42 46  0  0  0  0            999 V2000
   10.1667   -0.4917    0.0000 C   0  0  0  0  0  0  0  0  0  0  0  0
   10.1667   -1.3167    0.0000 C   0  0  1  0  0  0  0  0  0  0  0  0
   10.8787   -1.7250    0.0000 C   0  0  2  0  0  0  0  0  0  0  0  0
   10.8787   -0.0750    0.0000 C   0  0  0  0  0  0  0  0  0  0  0  0
   11.5918   -1.3167    0.0000 C   0  0  2  0  0  0  0  0  0  0  0  0
   12.3028   -1.7260    0.0000 C   0  0  0  0  0  0  0  0  0  0  0  0
   13.0174   -1.3148    0.0000 C   0  0  0  0  0  0  0  0  0  0  0  0
   13.0159   -0.4945    0.0000 C   0  0  1  0  0  0  0  0  0  0  0  0
   13.0238    1.1599    0.0000 C   0  0  0  0  0  0  0  0  0  0  0  0
   12.3015    0.7504    0.0000 C   0  0  0  0  0  0  0  0  0  0  0  0
   13.7391    0.7414    0.0000 C   0  0  1  0  0  0  0  0  0  0  0  0
   13.7309   -0.0834    0.0000 C   0  0  1  0  0  0  0  0  0  0  0  0
   14.5130   -0.3461    0.0000 C   0  0  0  0  0  0  0  0  0  0  0  0
   15.0044    0.3165    0.0000 C   0  0  0  0  0  0  0  0  0  0  0  0
   14.5261    0.9886    0.0000 C   0  0  2  0  0  0  0  0  0  0  0  0
   14.5208    1.8167    0.0000 C   0  0  1  0  0  0  0  0  0  0  0  0
   15.2327    2.2337    0.0000 C   0  0  0  0  0  0  0  0  0  0  0  0
   13.8038    2.2246    0.0000 C   0  0  0  0  0  0  0  0  0  0  0  0
   15.9497    1.8257    0.0000 C   0  0  0  0  0  0  0  0  0  0  0  0
   16.6616    2.2428    0.0000 C   0  0  0  0  0  0  0  0  0  0  0  0
   17.3787    1.8348    0.0000 C   0  0  0  0  0  0  0  0  0  0  0  0
   18.0905    2.2518    0.0000 C   0  0  0  0  0  0  0  0  0  0  0  0
   17.3839    1.0098    0.0000 C   0  0  0  0  0  0  0  0  0  0  0  0
   13.7333    1.5667    0.0000 C   0  0  0  0  0  0  0  0  0  0  0  0
   11.5873   -0.4930    0.0000 C   0  0  1  0  0  0  0  0  0  0  0  0
   12.3007   -0.0760    0.0000 C   0  0  1  0  0  0  0  0  0  0  0  0
   11.5829    0.3333    0.0000 C   0  0  0  0  0  0  0  0  0  0  0  0
   13.7250   -0.9083    0.0000 C   0  0  0  0  0  0  0  0  0  0  0  0
   15.3500    0.9917    0.0000 H   0  0  0  0  0  0  0  0  0  0  0  0
   11.5875   -2.1375    0.0000 H   0  0  0  0  0  0  0  0  0  0  0  0
   13.0083    0.3333    0.0000 H   0  0  0  0  0  0  0  0  0  0  0  0
    9.4528   -1.7302    0.0000 O   0  0  0  0  0  0  0  0  0  0  0  0
   10.4583   -2.4375    0.0000 C   0  0  0  0  0  0  0  0  0  0  0  0
   11.2833   -2.4375    0.0000 C   0  0  0  0  0  0  0  0  0  0  0  0
    8.7377   -1.3187    0.0000 S   0  0  0  0  0  0  0  0  0  0  0  0
    8.0208   -0.9042    0.0000 O   0  0  0  0  0  0  0  0  0  0  0  0
    8.3255   -2.0334    0.0000 O   0  0  0  0  0  0  0  0  0  0  0  0
    9.1527   -0.6057    0.0000 O   0  0  0  0  0  0  0  0  0  0  0  0
   15.9550    1.0008    0.0000 O   0  0  0  0  0  0  0  0  0  0  0  0
    9.6324   -2.4319    0.0000 O   0  0  0  0  0  0  0  0  0  0  0  0
   10.8665   -3.1600    0.0000 O   0  0  0  0  0  0  0  0  0  0  0  0
    9.2151   -3.1436    0.0000 C   0  0  0  0  0  0  0  0  0  0  0  0
 17 19  1  0  0  0  0
  3  5  1  0  0  0  0
 19 20  1  0  0  0  0
 25  4  1  0  0  0  0
 20 21  2  0  0  0  0
 26 10  1  0  0  0  0
 21 22  1  0  0  0  0
  8 12  1  0  0  0  0
 21 23  1  0  0  0  0
 11  9  1  0  0  0  0
 11 24  1  1  0  0  0
 26 25  1  0  0  0  0
 26 27  1  1  0  0  0
 25 27  1  1  0  0  0
  9 10  1  0  0  0  0
 11 12  1  0  0  0  0
 25  5  1  0  0  0  0
 12 28  1  6  0  0  0
  1  2  1  0  0  0  0
 15 29  1  6  0  0  0
  1  4  1  0  0  0  0
  5 30  1  6  0  0  0
  5  6  1  0  0  0  0
  8 31  1  1  0  0  0
 12 13  1  0  0  0  0
  2 32  1  1  0  0  0
 13 14  1  0  0  0  0
  3 33  1  6  0  0  0
 14 15  1  0  0  0  0
  3 34  1  0  0  0  0
 15 11  1  0  0  0  0
 32 35  1  0  0  0  0
  6  7  1  0  0  0  0
 35 36  1  0  0  0  0
 15 16  1  0  0  0  0
 35 37  2  0  0  0  0
  7  8  1  0  0  0  0
 35 38  2  0  0  0  0
 16 17  1  0  0  0  0
 19 39  2  0  0  0  0
 26  8  1  0  0  0  0
 16 18  1  6  0  0  0
 33 40  1  0  0  0  0
 33 41  2  0  0  0  0
  2  3  1  0  0  0  0
 40 42  1  0  0  0  0
M  END
>  <Mol Weight>
564.774

>  <Formula>
C31H48O7S

>  <chembl_id>
CHEMBL1162317

$$$$

  Mrv0541 06201412482D          

 43 45  0  0  0  0            999 V2000
    7.9785   -6.1915    0.0000 N   0  0  0  0  0  0  0  0  0  0  0  0
    8.5940   -6.7437    0.0000 C   0  0  0  0  0  0  0  0  0  0  0  0
    8.2569   -7.4971    0.0000 C   0  0  0  0  0  0  0  0  0  0  0  0
    7.4357   -7.4124    0.0000 C   0  0  0  0  0  0  0  0  0  0  0  0
    7.2678   -6.6034    0.0000 C   0  0  0  0  0  0  0  0  0  0  0  0
    6.4842   -6.8601    0.0000 C   0  0  0  0  0  0  0  0  0  0  0  0
    6.9306   -5.8541    0.0000 C   0  0  0  0  0  0  0  0  0  0  0  0
    9.0780   -6.0792    0.0000 C   0  0  0  0  0  0  0  0  0  0  0  0
    9.3047   -7.1556    0.0000 C   0  0  0  0  0  0  0  0  0  0  0  0
    8.6688   -8.2119    0.0000 C   0  0  0  0  0  0  0  0  0  0  0  0
    8.2569   -8.9226    0.0000 N   0  0  0  0  0  0  0  0  0  0  0  0
    8.6688   -9.6376    0.0000 C   0  0  0  0  0  0  0  0  0  0  0  0
    8.2569  -10.3525    0.0000 C   0  0  0  0  0  0  0  0  0  0  0  0
    7.5462   -9.9405    0.0000 C   0  0  0  0  0  0  0  0  0  0  0  0
    6.8314  -10.3525    0.0000 C   0  0  0  0  0  0  0  0  0  0  0  0
    6.1165   -9.9405    0.0000 C   0  0  0  0  0  0  0  0  0  0  0  0
    7.8450  -11.0632    0.0000 C   0  0  0  0  0  0  0  0  0  0  0  0
    7.0211  -11.0632    0.0000 C   0  0  0  0  0  0  0  0  0  0  0  0
    8.2569  -11.7780    0.0000 C   0  0  0  0  0  0  0  0  0  0  0  0
    5.4016  -10.3525    0.0000 N   0  0  0  0  0  0  0  0  0  0  0  0
    5.4016  -11.1763    0.0000 C   0  0  0  0  0  0  0  0  0  0  0  0
    4.6909   -9.9405    0.0000 C   0  0  0  0  0  0  0  0  0  0  0  0
    3.9761  -10.3525    0.0000 C   0  0  0  0  0  0  0  0  0  0  0  0
    3.2653   -9.9405    0.0000 C   0  0  0  0  0  0  0  0  0  0  0  0
    3.2653   -9.1167    0.0000 C   0  0  0  0  0  0  0  0  0  0  0  0
    2.5504   -8.7048    0.0000 C   0  0  0  0  0  0  0  0  0  0  0  0
    1.8355   -9.1167    0.0000 C   0  0  0  0  0  0  0  0  0  0  0  0
    1.8355   -9.9405    0.0000 C   0  0  0  0  0  0  0  0  0  0  0  0
    2.5504  -10.3525    0.0000 C   0  0  0  0  0  0  0  0  0  0  0  0
    1.1207   -8.7048    0.0000 O   0  0  0  0  0  0  0  0  0  0  0  0
    0.4100   -9.1167    0.0000 C   0  0  0  0  0  0  0  0  0  0  0  0
    2.5504   -7.8809    0.0000 O   0  0  0  0  0  0  0  0  0  0  0  0
    1.8355   -7.4690    0.0000 C   0  0  0  0  0  0  0  0  0  0  0  0
    8.9718  -10.7644    0.0000 C   0  0  0  0  0  0  0  0  0  0  0  0
    9.6825  -10.3525    0.0000 C   0  0  0  0  0  0  0  0  0  0  0  0
   10.3974  -10.7644    0.0000 C   0  0  0  0  0  0  0  0  0  0  0  0
   10.3974  -11.5882    0.0000 C   0  0  0  0  0  0  0  0  0  0  0  0
    9.6825  -12.0002    0.0000 C   0  0  0  0  0  0  0  0  0  0  0  0
    8.9718  -11.5882    0.0000 C   0  0  0  0  0  0  0  0  0  0  0  0
   11.1122  -12.0002    0.0000 O   0  0  0  0  0  0  0  0  0  0  0  0
   11.1122  -12.8240    0.0000 C   0  0  0  0  0  0  0  0  0  0  0  0
   11.1122  -10.3525    0.0000 O   0  0  0  0  0  0  0  0  0  0  0  0
   11.8229  -10.7644    0.0000 C   0  0  0  0  0  0  0  0  0  0  0  0
  1  2  1  0  0  0  0
  2  3  1  0  0  0  0
  3  4  2  0  0  0  0
  4  5  1  0  0  0  0
  1  5  1  0  0  0  0
  5  6  1  0  0  0  0
  5  7  1  0  0  0  0
  2  8  1  0  0  0  0
  2  9  1  0  0  0  0
 12 13  1  0  0  0  0
 13 14  1  0  0  0  0
 14 15  1  0  0  0  0
 15 16  1  0  0  0  0
 17 18  1  0  0  0  0
 17 19  1  0  0  0  0
 13 17  1  0  0  0  0
 20 21  1  0  0  0  0
 22 23  1  0  0  0  0
 24 25  1  0  0  0  0
 25 26  2  0  0  0  0
 26 27  1  0  0  0  0
 27 28  2  0  0  0  0
 28 29  1  0  0  0  0
 24 29  2  0  0  0  0
 30 31  1  0  0  0  0
 27 30  1  0  0  0  0
 32 33  1  0  0  0  0
 26 32  1  0  0  0  0
 23 24  1  0  0  0  0
 20 22  1  0  0  0  0
 16 20  1  0  0  0  0
 34 35  1  0  0  0  0
 35 36  2  0  0  0  0
 36 37  1  0  0  0  0
 37 38  2  0  0  0  0
 38 39  1  0  0  0  0
 34 39  2  0  0  0  0
 40 41  1  0  0  0  0
 37 40  1  0  0  0  0
 42 43  1  0  0  0  0
 36 42  1  0  0  0  0
 13 34  1  0  0  0  0
 11 12  1  0  0  0  0
 10 11  1  0  0  0  0
  3 10  1  0  0  0  0
M  END
>  <Mol Weight>
595.8555

>  <Formula>
C36H57N3O4

>  <chembl_id>
CHEMBL1091420

$$$$

  Mrv0541 06201412482D          

 45 51  0  0  0  0            999 V2000
    2.4081    0.5670    0.0000 N   0  0  0  0  0  0  0  0  0  0  0  0
    2.4069   -0.2608    0.0000 C   0  0  0  0  0  0  0  0  0  0  0  0
    3.1221   -0.6738    0.0000 N   0  0  0  0  0  0  0  0  0  0  0  0
    3.1203    0.9800    0.0000 C   0  0  0  0  0  0  0  0  0  0  0  0
    3.8359    0.5706    0.0000 C   0  0  0  0  0  0  0  0  0  0  0  0
    3.8408   -0.2608    0.0000 C   0  0  0  0  0  0  0  0  0  0  0  0
    4.6331   -0.5131    0.0000 N   0  0  0  0  0  0  0  0  0  0  0  0
    5.1179    0.1624    0.0000 N   0  0  0  0  0  0  0  0  0  0  0  0
    4.6252    0.8321    0.0000 C   0  0  0  0  0  0  0  0  0  0  0  0
    1.6937   -0.6732    0.0000 C   0  0  0  0  0  0  0  0  0  0  0  0
    0.9789   -0.2582    0.0000 C   0  0  0  0  0  0  0  0  0  0  0  0
    0.9827   -1.9090    0.0000 C   0  0  0  0  0  0  0  0  0  0  0  0
    1.6944   -1.4952    0.0000 C   0  0  0  0  0  0  0  0  0  0  0  0
    3.1178    1.8054    0.0000 N   0  0  0  0  0  0  0  0  0  0  0  0
    3.8293    2.2172    0.0000 C   0  0  0  0  0  0  0  0  0  0  0  0
    3.8288    3.0390    0.0000 C   0  0  0  0  0  0  0  0  0  0  0  0
    3.1146    3.4534    0.0000 O   0  0  0  0  0  0  0  0  0  0  0  0
    2.3992    3.0398    0.0000 C   0  0  0  0  0  0  0  0  0  0  0  0
    2.3980    2.2118    0.0000 C   0  0  0  0  0  0  0  0  0  0  0  0
    5.0399   -1.2256    0.0000 C   0  0  0  0  0  0  0  0  0  0  0  0
    4.6234   -1.9336    0.0000 C   0  0  0  0  0  0  0  0  0  0  0  0
    5.0295   -2.6456    0.0000 C   0  0  0  0  0  0  0  0  0  0  0  0
    5.8508   -2.6500    0.0000 N   0  0  0  0  0  0  0  0  0  0  0  0
    6.2642   -1.9364    0.0000 C   0  0  0  0  0  0  0  0  0  0  0  0
    5.8557   -1.2274    0.0000 C   0  0  0  0  0  0  0  0  0  0  0  0
    0.2631   -1.4959    0.0000 C   0  0  0  0  0  0  0  0  0  0  0  0
    0.2613   -0.6715    0.0000 C   0  0  0  0  0  0  0  0  0  0  0  0
    6.2610   -3.3662    0.0000 C   0  0  0  0  0  0  0  0  0  0  0  0
    7.0864   -3.3690    0.0000 C   0  0  0  0  0  0  0  0  0  0  0  0
    7.4947   -4.0868    0.0000 C   0  0  0  0  0  0  0  0  0  0  0  0
    8.3193   -4.0900    0.0000 C   0  0  0  0  0  0  0  0  0  0  0  0
    8.7353   -3.3760    0.0000 C   0  0  0  0  0  0  0  0  0  0  0  0
    8.3206   -2.6575    0.0000 C   0  0  0  0  0  0  0  0  0  0  0  0
    7.4974   -2.6578    0.0000 C   0  0  0  0  0  0  0  0  0  0  0  0
   -0.4507   -1.9103    0.0000 N   0  0  0  0  0  0  0  0  0  0  0  0
   -1.1665   -1.4992    0.0000 C   0  0  0  0  0  0  0  0  0  0  0  0
   -1.1684   -0.6738    0.0000 O   0  0  0  0  0  0  0  0  0  0  0  0
   -1.8803   -1.9135    0.0000 N   0  0  0  0  0  0  0  0  0  0  0  0
   -2.5961   -1.5025    0.0000 C   0  0  0  0  0  0  0  0  0  0  0  0
   -2.5994   -0.6780    0.0000 C   0  0  0  0  0  0  0  0  0  0  0  0
   -3.3112   -0.2670    0.0000 C   0  0  0  0  0  0  0  0  0  0  0  0
   -4.0274   -0.6779    0.0000 N   0  0  0  0  0  0  0  0  0  0  0  0
   -4.0275   -1.5042    0.0000 C   0  0  0  0  0  0  0  0  0  0  0  0
   -3.3113   -1.9198    0.0000 C   0  0  0  0  0  0  0  0  0  0  0  0
   -4.7379   -0.2641    0.0000 C   0  0  0  0  0  0  0  0  0  0  0  0
  4  1  1  0  0  0  0
 20 21  1  0  0  0  0
  5  6  1  0  0  0  0
 21 22  1  0  0  0  0
 10 11  2  0  0  0  0
 22 23  1  0  0  0  0
 11 27  1  0  0  0  0
 23 24  1  0  0  0  0
 24 25  1  0  0  0  0
 25 20  1  0  0  0  0
 26 27  2  0  0  0  0
 26 12  1  0  0  0  0
  2  3  1  0  0  0  0
 12 13  2  0  0  0  0
 23 28  1  0  0  0  0
 13 10  1  0  0  0  0
 28 29  1  0  0  0  0
  2 10  1  0  0  0  0
 29 30  2  0  0  0  0
  3  6  2  0  0  0  0
 30 31  1  0  0  0  0
  4 14  1  0  0  0  0
 31 32  2  0  0  0  0
 14 15  1  0  0  0  0
 32 33  1  0  0  0  0
  1  2  2  0  0  0  0
 33 34  2  0  0  0  0
 34 29  1  0  0  0  0
  5  4  2  0  0  0  0
 26 35  1  0  0  0  0
  6  7  1  0  0  0  0
 35 36  1  0  0  0  0
  7  8  1  0  0  0  0
 36 37  2  0  0  0  0
  8  9  2  0  0  0  0
 36 38  1  0  0  0  0
 14 19  1  0  0  0  0
 38 39  1  0  0  0  0
 39 40  1  0  0  0  0
 15 16  1  0  0  0  0
 16 17  1  0  0  0  0
 17 18  1  0  0  0  0
 18 19  1  0  0  0  0
  9  5  1  0  0  0  0
 39 44  1  0  0  0  0
 40 41  1  0  0  0  0
 41 42  1  0  0  0  0
 42 43  1  0  0  0  0
 43 44  1  0  0  0  0
  7 20  1  0  0  0  0
 42 45  1  0  0  0  0
M  END
>  <Mol Weight>
609.7643

>  <Formula>
C34H43N9O2

>  <chembl_id>
CHEMBL1097899

$$$$

  Mrv0541 06201412482D          

 42 45  0  0  0  0            999 V2000
   -1.0259   -2.9601    0.0000 N   0  0  0  0  0  0  0  0  0  0  0  0
    4.7125   -0.2209    0.0000 C   0  0  0  0  0  0  0  0  0  0  0  0
   -1.7230   -2.5477    0.0000 C   0  0  0  0  0  0  0  0  0  0  0  0
    6.2588   -3.7700    0.0000 C   0  0  0  0  0  0  0  0  0  0  0  0
   -2.4446   -2.9748    0.0000 C   0  0  0  0  0  0  0  0  0  0  0  0
    5.4930    1.1340    0.0000 C   0  0  0  0  0  0  0  0  0  0  0  0
    3.9320   -0.2209    0.0000 C   0  0  0  0  0  0  0  0  0  0  0  0
    4.3591    0.4958    0.0000 C   0  0  0  0  0  0  0  0  0  0  0  0
    5.5372   -4.1676    0.0000 C   0  0  0  0  0  0  0  0  0  0  0  0
    0.3731   -2.9601    0.0000 C   0  0  0  0  0  0  0  0  0  0  0  0
    1.1094   -2.5821    0.0000 C   0  0  0  0  0  0  0  0  0  0  0  0
    4.0253   -1.6249    0.0000 S   0  0  0  0  0  0  0  0  0  0  0  0
    3.2546   -2.9748    0.0000 C   0  0  0  0  0  0  0  0  0  0  0  0
   -0.3093   -2.5477    0.0000 C   0  0  0  0  0  0  0  0  0  0  0  0
   -1.7230   -1.7672    0.0000 C   0  0  0  0  0  0  0  0  0  0  0  0
    6.2588   -2.9601    0.0000 C   0  0  0  0  0  0  0  0  0  0  0  0
    5.4930    0.2749    0.0000 C   0  0  0  0  0  0  0  0  0  0  0  0
    4.0253   -2.4937    0.0000 C   0  0  1  0  0  0  0  0  0  0  0  0
    6.2883    1.6003    0.0000 O   0  5  0  0  0  0  0  0  0  0  0  0
    2.5232   -2.5477    0.0000 C   0  0  0  0  0  0  0  0  0  0  0  0
    4.7125   -1.2076    0.0000 C   0  0  0  0  0  0  0  0  0  0  0  0
    4.6733    1.6003    0.0000 O   0  0  0  0  0  0  0  0  0  0  0  0
    5.5078   -2.5624    0.0000 C   0  0  0  0  0  0  0  0  0  0  0  0
    4.7862   -2.9601    0.0000 C   0  0  0  0  0  0  0  0  0  0  0  0
   -3.1662   -2.5624    0.0000 C   0  0  0  0  0  0  0  0  0  0  0  0
   -2.4446   -1.3254    0.0000 C   0  0  0  0  0  0  0  0  0  0  0  0
   -1.0259   -1.3696    0.0000 C   0  0  0  0  0  0  0  0  0  0  0  0
    1.8408   -2.9601    0.0000 C   0  0  0  0  0  0  0  0  0  0  0  0
    5.1151   -4.8892    0.0000 O   0  0  0  0  0  0  0  0  0  0  0  0
   -0.3093   -1.7672    0.0000 C   0  0  0  0  0  0  0  0  0  0  0  0
   -3.1662   -1.7377    0.0000 C   0  0  0  0  0  0  0  0  0  0  0  0
   -3.8878   -2.9748    0.0000 Cl  0  0  0  0  0  0  0  0  0  0  0  0
    7.2210    1.6150    0.0000 Na  0  3  0  0  0  0  0  0  0  0  0  0
    3.2546   -3.7847    0.0000 C   0  0  0  0  0  0  0  0  0  0  0  0
    2.5232   -4.2118    0.0000 C   0  0  0  0  0  0  0  0  0  0  0  0
    6.9804   -4.2118    0.0000 C   0  0  0  0  0  0  0  0  0  0  0  0
    4.8303   -3.7700    0.0000 C   0  0  0  0  0  0  0  0  0  0  0  0
    5.9496   -4.8892    0.0000 C   0  0  0  0  0  0  0  0  0  0  0  0
    6.9804   -2.5477    0.0000 C   0  0  0  0  0  0  0  0  0  0  0  0
    1.8408   -3.7847    0.0000 C   0  0  0  0  0  0  0  0  0  0  0  0
    7.6775   -3.7700    0.0000 C   0  0  0  0  0  0  0  0  0  0  0  0
    7.6775   -2.9601    0.0000 C   0  0  0  0  0  0  0  0  0  0  0  0
  2 21  1  0  0  0  0
  3  1  2  0  0  0  0
  4 16  1  0  0  0  0
  5  3  1  0  0  0  0
  6 17  1  0  0  0  0
  7  2  1  0  0  0  0
  8  2  1  0  0  0  0
  9  4  1  0  0  0  0
 10 14  1  0  0  0  0
 11 10  2  0  0  0  0
 18 12  1  6  0  0  0
 13 20  1  0  0  0  0
 14  1  1  0  0  0  0
 15  3  1  0  0  0  0
 16 23  1  0  0  0  0
 17  2  1  0  0  0  0
 18 13  1  0  0  0  0
 19  6  1  0  0  0  0
 20 28  2  0  0  0  0
 21 12  1  0  0  0  0
 22  6  2  0  0  0  0
 23 24  1  0  0  0  0
 24 18  1  0  0  0  0
 25  5  2  0  0  0  0
 26 15  1  0  0  0  0
 27 30  1  0  0  0  0
 28 11  1  0  0  0  0
 29  9  1  0  0  0  0
 30 14  2  0  0  0  0
 31 26  2  0  0  0  0
 32 25  1  0  0  0  0
 34 35  1  0  0  0  0
 35 40  2  0  0  0  0
 36  4  2  0  0  0  0
 37  9  1  0  0  0  0
 38  9  1  0  0  0  0
 39 16  2  0  0  0  0
 40 28  1  0  0  0  0
 41 42  2  0  0  0  0
 42 39  1  0  0  0  0
 27 15  2  0  0  0  0
 31 25  1  0  0  0  0
 34 13  2  0  0  0  0
  7  8  1  0  0  0  0
 41 36  1  0  0  0  0
M  CHG  2  19  -1  33   1
M  END
>  <Mol Weight>
608.165

>  <Formula>
C35H35ClNNaO3S

>  <chembl_id>
CHEMBL1200681

$$$$

  Mrv0541 06201412482D          

 43 47  0  0  0  0            999 V2000
   10.2784  -18.4362    0.0000 N   0  0  0  0  0  0  0  0  0  0  0  0
   10.3188  -17.6081    0.0000 C   0  0  0  0  0  0  0  0  0  0  0  0
   11.1152  -17.3948    0.0000 C   0  0  0  0  0  0  0  0  0  0  0  0
   11.5655  -18.0900    0.0000 C   0  0  0  0  0  0  0  0  0  0  0  0
   12.3808  -18.2190    0.0000 C   0  0  0  0  0  0  0  0  0  0  0  0
   12.6779  -18.9872    0.0000 C   0  0  0  0  0  0  0  0  0  0  0  0
   12.1553  -19.6262    0.0000 C   0  0  0  0  0  0  0  0  0  0  0  0
   11.3400  -19.4972    0.0000 C   0  0  0  0  0  0  0  0  0  0  0  0
   11.0472  -18.7290    0.0000 C   0  0  0  0  0  0  0  0  0  0  0  0
    9.6785  -17.0880    0.0000 O   0  0  0  0  0  0  0  0  0  0  0  0
   11.4123  -16.6225    0.0000 O   0  0  0  0  0  0  0  0  0  0  0  0
    9.5823  -18.8832    0.0000 C   0  0  0  0  0  0  0  0  0  0  0  0
    8.8500  -18.5102    0.0000 C   0  0  0  0  0  0  0  0  0  0  0  0
    8.1826  -18.9907    0.0000 C   0  0  0  0  0  0  0  0  0  0  0  0
    8.7613  -17.6935    0.0000 O   0  0  0  0  0  0  0  0  0  0  0  0
    7.4264  -18.6584    0.0000 N   0  0  0  0  0  0  0  0  0  0  0  0
    6.7127  -19.0696    0.0000 N   0  0  0  0  0  0  0  0  0  0  0  0
    6.0983  -18.5162    0.0000 N   0  0  0  0  0  0  0  0  0  0  0  0
    6.4348  -17.7605    0.0000 C   0  0  0  0  0  0  0  0  0  0  0  0
    7.2545  -17.8545    0.0000 C   0  0  0  0  0  0  0  0  0  0  0  0
    6.0236  -17.0536    0.0000 C   0  0  0  0  0  0  0  0  0  0  0  0
    5.1971  -17.0536    0.0000 O   0  0  0  0  0  0  0  0  0  0  0  0
    4.7859  -16.3384    0.0000 C   0  0  0  0  0  0  0  0  0  0  0  0
    3.9594  -16.3384    0.0000 C   0  0  0  0  0  0  0  0  0  0  0  0
    3.5482  -15.6232    0.0000 C   0  0  0  0  0  0  0  0  0  0  0  0
    3.9594  -14.9039    0.0000 C   0  0  0  0  0  0  0  0  0  0  0  0
    4.7859  -14.9039    0.0000 C   0  0  0  0  0  0  0  0  0  0  0  0
    5.1971  -15.6232    0.0000 C   0  0  0  0  0  0  0  0  0  0  0  0
    3.5482  -14.1887    0.0000 C   0  0  0  0  0  0  0  0  0  0  0  0
    2.7216  -14.1887    0.0000 C   0  0  0  0  0  0  0  0  0  0  0  0
    2.3104  -13.4818    0.0000 C   0  0  0  0  0  0  0  0  0  0  0  0
    2.7216  -12.7666    0.0000 O   0  0  0  0  0  0  0  0  0  0  0  0
    1.4839  -13.4818    0.0000 C   0  0  0  0  0  0  0  0  0  0  0  0
    1.0727  -14.1887    0.0000 C   0  0  0  0  0  0  0  0  0  0  0  0
    0.2462  -14.1887    0.0000 C   0  0  0  0  0  0  0  0  0  0  0  0
   -0.1650  -13.4818    0.0000 C   0  0  0  0  0  0  0  0  0  0  0  0
    0.2462  -12.7666    0.0000 C   0  0  0  0  0  0  0  0  0  0  0  0
    1.0727  -12.7666    0.0000 C   0  0  0  0  0  0  0  0  0  0  0  0
   -0.9915  -13.4818    0.0000 O   0  0  0  0  0  0  0  0  0  0  0  0
   -1.4027  -12.7666    0.0000 C   0  0  0  0  0  0  0  0  0  0  0  0
    1.4839  -14.9039    0.0000 O   0  0  0  0  0  0  0  0  0  0  0  0
    1.0727  -15.6232    0.0000 C   0  0  0  0  0  0  0  0  0  0  0  0
   13.4932  -19.1162    0.0000 Cl  0  0  0  0  0  0  0  0  0  0  0  0
  1  2  1  0  0  0  0
  2  3  1  0  0  0  0
  3  4  1  0  0  0  0
  4  5  1  0  0  0  0
  5  6  2  0  0  0  0
  6  7  1  0  0  0  0
  7  8  2  0  0  0  0
  8  9  1  0  0  0  0
  1  9  1  0  0  0  0
  4  9  2  0  0  0  0
  2 10  2  0  0  0  0
  3 11  2  0  0  0  0
 12 13  1  0  0  0  0
 13 14  1  0  0  0  0
 13 15  1  0  0  0  0
 16 17  1  0  0  0  0
 17 18  2  0  0  0  0
 18 19  1  0  0  0  0
 19 20  2  0  0  0  0
 16 20  1  0  0  0  0
 23 24  1  0  0  0  0
 24 25  2  0  0  0  0
 25 26  1  0  0  0  0
 26 27  2  0  0  0  0
 27 28  1  0  0  0  0
 23 28  2  0  0  0  0
 22 23  1  0  0  0  0
 29 30  2  0  0  0  0
 30 31  1  0  0  0  0
 31 32  2  0  0  0  0
 33 34  1  0  0  0  0
 34 35  2  0  0  0  0
 35 36  1  0  0  0  0
 36 37  2  0  0  0  0
 37 38  1  0  0  0  0
 33 38  2  0  0  0  0
 39 40  1  0  0  0  0
 36 39  1  0  0  0  0
 41 42  1  0  0  0  0
 34 41  1  0  0  0  0
 31 33  1  0  0  0  0
 26 29  1  0  0  0  0
 21 22  1  0  0  0  0
 19 21  1  0  0  0  0
 14 16  1  0  0  0  0
  1 12  1  0  0  0  0
  6 43  1  0  0  0  0
M  END
>  <Mol Weight>
603.022

>  <Formula>
C31H27ClN4O7

>  <chembl_id>
CHEMBL1088958

$$$$

  Mrv0541 06201412482D          

 41 45  0  0  0  0            999 V2000
    7.9493  -18.9103    0.0000 N   0  0  0  0  0  0  0  0  0  0  0  0
    7.9939  -18.0836    0.0000 C   0  0  0  0  0  0  0  0  0  0  0  0
    8.7888  -17.8738    0.0000 C   0  0  0  0  0  0  0  0  0  0  0  0
    9.2405  -18.5588    0.0000 C   0  0  0  0  0  0  0  0  0  0  0  0
   10.0542  -18.6883    0.0000 C   0  0  0  0  0  0  0  0  0  0  0  0
   10.3480  -19.4588    0.0000 C   0  0  0  0  0  0  0  0  0  0  0  0
    9.8322  -20.1082    0.0000 C   0  0  0  0  0  0  0  0  0  0  0  0
    9.0143  -19.9787    0.0000 C   0  0  0  0  0  0  0  0  0  0  0  0
    8.7205  -19.2082    0.0000 C   0  0  0  0  0  0  0  0  0  0  0  0
    7.3516  -17.5703    0.0000 O   0  0  0  0  0  0  0  0  0  0  0  0
    9.0868  -17.1033    0.0000 O   0  0  0  0  0  0  0  0  0  0  0  0
    7.2552  -19.3545    0.0000 C   0  0  0  0  0  0  0  0  0  0  0  0
    6.5247  -18.9804    0.0000 C   0  0  0  0  0  0  0  0  0  0  0  0
    5.8551  -19.4706    0.0000 C   0  0  0  0  0  0  0  0  0  0  0  0
    5.1007  -19.1374    0.0000 N   0  0  0  0  0  0  0  0  0  0  0  0
    4.3848  -19.5499    0.0000 N   0  0  0  0  0  0  0  0  0  0  0  0
    3.7726  -18.9946    0.0000 N   0  0  0  0  0  0  0  0  0  0  0  0
    4.1102  -18.2407    0.0000 C   0  0  0  0  0  0  0  0  0  0  0  0
    4.9283  -18.3267    0.0000 C   0  0  0  0  0  0  0  0  0  0  0  0
    3.6977  -17.5274    0.0000 C   0  0  0  0  0  0  0  0  0  0  0  0
    2.8727  -17.5274    0.0000 O   0  0  0  0  0  0  0  0  0  0  0  0
    2.4602  -16.8100    0.0000 C   0  0  0  0  0  0  0  0  0  0  0  0
    1.6352  -16.8100    0.0000 C   0  0  0  0  0  0  0  0  0  0  0  0
    1.2227  -16.0925    0.0000 C   0  0  0  0  0  0  0  0  0  0  0  0
    1.6352  -15.3792    0.0000 C   0  0  0  0  0  0  0  0  0  0  0  0
    2.4602  -15.3792    0.0000 C   0  0  0  0  0  0  0  0  0  0  0  0
    2.8727  -16.0925    0.0000 C   0  0  0  0  0  0  0  0  0  0  0  0
    1.2227  -14.6700    0.0000 C   0  0  0  0  0  0  0  0  0  0  0  0
    0.3977  -14.6700    0.0000 C   0  0  0  0  0  0  0  0  0  0  0  0
   -0.0148  -13.9526    0.0000 C   0  0  0  0  0  0  0  0  0  0  0  0
    1.6352  -13.9526    0.0000 O   0  0  0  0  0  0  0  0  0  0  0  0
   -0.8398  -13.9526    0.0000 C   0  0  0  0  0  0  0  0  0  0  0  0
   -1.2524  -14.6700    0.0000 C   0  0  0  0  0  0  0  0  0  0  0  0
   -2.0773  -14.6700    0.0000 C   0  0  0  0  0  0  0  0  0  0  0  0
   -2.4899  -13.9526    0.0000 C   0  0  0  0  0  0  0  0  0  0  0  0
   -2.0773  -13.2393    0.0000 C   0  0  0  0  0  0  0  0  0  0  0  0
   -1.2523  -13.2393    0.0000 C   0  0  0  0  0  0  0  0  0  0  0  0
   -3.3148  -13.9526    0.0000 O   0  0  0  0  0  0  0  0  0  0  0  0
   -3.7273  -13.2393    0.0000 C   0  0  0  0  0  0  0  0  0  0  0  0
    6.4357  -18.1652    0.0000 O   0  0  0  0  0  0  0  0  0  0  0  0
   11.1660  -19.5882    0.0000 Cl  0  0  0  0  0  0  0  0  0  0  0  0
  1  2  1  0  0  0  0
  2  3  1  0  0  0  0
  3  4  1  0  0  0  0
  4  5  1  0  0  0  0
  5  6  2  0  0  0  0
  6  7  1  0  0  0  0
  7  8  2  0  0  0  0
  8  9  1  0  0  0  0
  1  9  1  0  0  0  0
  4  9  2  0  0  0  0
  2 10  2  0  0  0  0
  3 11  2  0  0  0  0
 12 13  1  0  0  0  0
 13 14  1  0  0  0  0
 15 16  1  0  0  0  0
 16 17  2  0  0  0  0
 17 18  1  0  0  0  0
 18 19  2  0  0  0  0
 15 19  1  0  0  0  0
 22 23  1  0  0  0  0
 23 24  2  0  0  0  0
 24 25  1  0  0  0  0
 25 26  2  0  0  0  0
 26 27  1  0  0  0  0
 22 27  2  0  0  0  0
 21 22  1  0  0  0  0
 28 29  1  0  0  0  0
 29 30  2  0  0  0  0
 28 31  2  0  0  0  0
 32 33  1  0  0  0  0
 33 34  2  0  0  0  0
 34 35  1  0  0  0  0
 35 36  2  0  0  0  0
 36 37  1  0  0  0  0
 32 37  2  0  0  0  0
 38 39  1  0  0  0  0
 35 38  1  0  0  0  0
 30 32  1  0  0  0  0
 25 28  1  0  0  0  0
 20 21  1  0  0  0  0
 18 20  1  0  0  0  0
 14 15  1  0  0  0  0
 13 40  1  0  0  0  0
  1 12  1  0  0  0  0
  6 41  1  0  0  0  0
M  END
>  <Mol Weight>
572.996

>  <Formula>
C30H25ClN4O6

>  <chembl_id>
CHEMBL1088966

$$$$

  Mrv0541 06201412482D          

 43 49  0  0  0  0            999 V2000
    6.2518   -8.6899    0.0000 N   0  0  0  0  0  0  0  0  0  0  0  0
    6.9815   -8.3047    0.0000 C   0  0  0  0  0  0  0  0  0  0  0  0
    7.0127   -7.4802    0.0000 O   0  0  0  0  0  0  0  0  0  0  0  0
    7.6799   -8.7440    0.0000 C   0  0  0  0  0  0  0  0  0  0  0  0
    7.6486   -9.5684    0.0000 C   0  0  0  0  0  0  0  0  0  0  0  0
    6.9178   -9.9511    0.0000 C   0  0  0  0  0  0  0  0  0  0  0  0
    6.8847  -10.7719    0.0000 C   0  0  0  0  0  0  0  0  0  0  0  0
    7.5811  -11.2149    0.0000 C   0  0  0  0  0  0  0  0  0  0  0  0
    8.3126  -10.8310    0.0000 C   0  0  0  0  0  0  0  0  0  0  0  0
    8.3475  -10.0041    0.0000 C   0  0  0  0  0  0  0  0  0  0  0  0
    5.5375   -7.4577    0.0000 C   0  0  0  0  0  0  0  0  0  0  0  0
    4.8228   -7.0408    0.0000 C   0  0  0  0  0  0  0  0  0  0  0  0
    4.1065   -7.4511    0.0000 C   0  0  0  0  0  0  0  0  0  0  0  0
    4.1037   -8.2784    0.0000 C   0  0  0  0  0  0  0  0  0  0  0  0
    4.8231   -8.6934    0.0000 C   0  0  0  0  0  0  0  0  0  0  0  0
    5.5365   -8.2807    0.0000 C   0  0  0  0  0  0  0  0  0  0  0  0
    3.3903   -8.6914    0.0000 C   0  0  0  0  0  0  0  0  0  0  0  0
    2.6370   -8.3541    0.0000 C   0  0  0  0  0  0  0  0  0  0  0  0
    3.3027   -9.5118    0.0000 N   0  0  0  0  0  0  0  0  0  0  0  0
    2.4956   -9.6822    0.0000 C   0  0  0  0  0  0  0  0  0  0  0  0
    2.0837   -8.9692    0.0000 N   0  0  0  0  0  0  0  0  0  0  0  0
    1.2784   -9.1406    0.0000 C   0  0  0  0  0  0  0  0  0  0  0  0
    1.1925   -9.9595    0.0000 C   0  0  0  0  0  0  0  0  0  0  0  0
    1.9447  -10.2941    0.0000 S   0  0  0  0  0  0  0  0  0  0  0  0
    2.6285   -7.5302    0.0000 C   0  0  0  0  0  0  0  0  0  0  0  0
    3.3407   -7.1117    0.0000 C   0  0  0  0  0  0  0  0  0  0  0  0
    3.3334   -6.2874    0.0000 C   0  0  0  0  0  0  0  0  0  0  0  0
    1.9124   -7.1272    0.0000 N   0  0  0  0  0  0  0  0  0  0  0  0
    1.9015   -6.3043    0.0000 C   0  0  0  0  0  0  0  0  0  0  0  0
    2.6157   -5.8770    0.0000 N   0  0  0  0  0  0  0  0  0  0  0  0
    1.1812   -5.9022    0.0000 N   0  0  0  0  0  0  0  0  0  0  0  0
    1.1693   -5.0773    0.0000 C   0  0  0  0  0  0  0  0  0  0  0  0
    1.8776   -4.6598    0.0000 C   0  0  0  0  0  0  0  0  0  0  0  0
    1.8660   -3.8357    0.0000 C   0  0  0  0  0  0  0  0  0  0  0  0
    1.1451   -3.4326    0.0000 C   0  0  0  0  0  0  0  0  0  0  0  0
    0.4343   -3.8599    0.0000 C   0  0  0  0  0  0  0  0  0  0  0  0
    0.4493   -4.6826    0.0000 C   0  0  0  0  0  0  0  0  0  0  0  0
    1.1322   -2.6077    0.0000 N   0  0  0  0  0  0  0  0  0  0  0  0
    1.8440   -2.1891    0.0000 C   0  0  0  0  0  0  0  0  0  0  0  0
    1.8331   -1.3677    0.0000 C   0  0  0  0  0  0  0  0  0  0  0  0
    1.1140   -0.9626    0.0000 O   0  0  0  0  0  0  0  0  0  0  0  0
    0.4041   -1.3851    0.0000 C   0  0  0  0  0  0  0  0  0  0  0  0
    0.4135   -2.2128    0.0000 C   0  0  0  0  0  0  0  0  0  0  0  0
  1  2  1  0  0  0  0
  2  3  2  0  0  0  0
  2  4  1  0  0  0  0
  4  5  1  0  0  0  0
  5  6  1  0  0  0  0
  5 10  2  0  0  0  0
  6  7  2  0  0  0  0
  7  8  1  0  0  0  0
  8  9  2  0  0  0  0
  9 10  1  0  0  0  0
 19 17  1  0  0  0  0
 14 17  1  0  0  0  0
 20 21  1  0  0  0  0
 14 15  1  0  0  0  0
 12 13  1  0  0  0  0
 29 31  1  0  0  0  0
 15 16  2  0  0  0  0
 31 32  1  0  0  0  0
 16 11  1  0  0  0  0
 32 33  2  0  0  0  0
 17 18  2  0  0  0  0
 33 34  1  0  0  0  0
 21 22  1  0  0  0  0
 34 35  2  0  0  0  0
 22 23  2  0  0  0  0
 35 36  1  0  0  0  0
 23 24  1  0  0  0  0
 36 37  2  0  0  0  0
 37 32  1  0  0  0  0
 24 20  1  0  0  0  0
 35 38  1  0  0  0  0
 38 39  1  0  0  0  0
 11 12  2  0  0  0  0
 13 14  2  0  0  0  0
 25 26  2  0  0  0  0
 26 27  1  0  0  0  0
 38 43  1  0  0  0  0
 39 40  1  0  0  0  0
 40 41  1  0  0  0  0
 41 42  1  0  0  0  0
 42 43  1  0  0  0  0
 27 30  2  0  0  0  0
 18 21  1  0  0  0  0
 29 28  2  0  0  0  0
 28 25  1  0  0  0  0
 18 25  1  0  0  0  0
 29 30  1  0  0  0  0
 20 19  2  0  0  0  0
 16  1  1  0  0  0  0
M  END
>  <Mol Weight>
587.694

>  <Formula>
C33H29N7O2S

>  <chembl_id>
CHEMBL1090356

$$$$

  Mrv0541 06201412482D          

 45 50  0  0  0  0            999 V2000
    9.8664  -22.0680    0.0000 C   0  0  0  0  0  0  0  0  0  0  0  0
    9.0423  -22.0812    0.0000 C   0  0  0  0  0  0  0  0  0  0  0  0
   10.2744  -21.3520    0.0000 O   0  0  0  0  0  0  0  0  0  0  0  0
   10.2865  -22.7780    0.0000 O   0  0  0  0  0  0  0  0  0  0  0  0
    8.6378  -22.7951    0.0000 O   0  0  0  0  0  0  0  0  0  0  0  0
    8.6200  -21.3677    0.0000 O   0  0  0  0  0  0  0  0  0  0  0  0
    6.8025  -18.7047    0.0000 C   0  0  0  0  0  0  0  0  0  0  0  0
    7.6297  -18.6872    0.0000 C   0  0  0  0  0  0  0  0  0  0  0  0
    6.7666  -17.2779    0.0000 C   0  0  0  0  0  0  0  0  0  0  0  0
    6.3738  -18.0024    0.0000 C   0  0  0  0  0  0  0  0  0  0  0  0
    7.5969  -17.2563    0.0000 C   0  0  0  0  0  0  0  0  0  0  0  0
    8.0274  -17.9645    0.0000 C   0  0  0  0  0  0  0  0  0  0  0  0
    8.8206  -16.5124    0.0000 C   0  0  2  0  0  0  0  0  0  0  0  0
    7.9904  -16.5295    0.0000 C   0  0  0  0  0  0  0  0  0  0  0  0
    9.2511  -17.2206    0.0000 C   0  0  1  0  0  0  0  0  0  0  0  0
    8.8521  -17.9478    0.0000 C   0  0  2  0  0  0  0  0  0  0  0  0
    9.2800  -18.6530    0.0000 C   0  0  2  0  0  0  0  0  0  0  0  0
   10.1088  -18.6373    0.0000 C   0  0  1  0  0  0  0  0  0  0  0  0
   10.5077  -17.9100    0.0000 C   0  0  0  0  0  0  0  0  0  0  0  0
   10.0780  -17.1986    0.0000 C   0  0  0  0  0  0  0  0  0  0  0  0
    8.5699  -19.0885    0.0000 O   0  0  0  0  0  0  0  0  0  0  0  0
    9.8189  -16.6264    0.0000 O   0  0  0  0  0  0  0  0  0  0  0  0
    9.2176  -15.7892    0.0000 N   0  0  0  0  0  0  0  0  0  0  0  0
    8.7897  -15.0838    0.0000 C   0  0  0  0  0  0  0  0  0  0  0  0
    7.9649  -15.1017    0.0000 C   0  0  0  0  0  0  0  0  0  0  0  0
    7.2465  -14.7043    0.0000 C   0  0  0  0  0  0  0  0  0  0  0  0
    7.2644  -15.5291    0.0000 C   0  0  0  0  0  0  0  0  0  0  0  0
    8.3012  -17.5192    0.0000 C   0  0  0  0  0  0  0  0  0  0  0  0
    8.2417  -16.1785    0.0000 C   0  0  0  0  0  0  0  0  0  0  0  0
    6.4064  -19.4284    0.0000 O   0  0  0  0  0  0  0  0  0  0  0  0
    9.5607  -19.6128    0.0000 H   0  0  0  0  0  0  0  0  0  0  0  0
   10.5358  -19.3432    0.0000 N   0  0  0  0  0  0  0  0  0  0  0  0
   11.3606  -19.3263    0.0000 C   0  0  0  0  0  0  0  0  0  0  0  0
   11.7876  -20.0322    0.0000 C   0  0  0  0  0  0  0  0  0  0  0  0
   11.7584  -18.6036    0.0000 O   0  0  0  0  0  0  0  0  0  0  0  0
   11.3882  -20.7518    0.0000 C   0  0  0  0  0  0  0  0  0  0  0  0
   11.8145  -21.4573    0.0000 C   0  0  0  0  0  0  0  0  0  0  0  0
   12.6402  -21.4408    0.0000 C   0  0  0  0  0  0  0  0  0  0  0  0
   13.0378  -20.7131    0.0000 C   0  0  0  0  0  0  0  0  0  0  0  0
   12.6091  -20.0107    0.0000 C   0  0  0  0  0  0  0  0  0  0  0  0
   13.0681  -22.1462    0.0000 C   0  0  0  0  0  0  0  0  0  0  0  0
   12.6713  -22.8695    0.0000 F   0  0  0  0  0  0  0  0  0  0  0  0
   13.8929  -22.1282    0.0000 F   0  0  0  0  0  0  0  0  0  0  0  0
   13.4750  -22.8583    0.0000 F   0  0  0  0  0  0  0  0  0  0  0  0
    8.3025  -15.6571    0.0000 H   0  0  0  0  0  0  0  0  0  0  0  0
  1  3  2  0  0  0  0
  1  4  1  0  0  0  0
  2  5  2  0  0  0  0
  2  6  1  0  0  0  0
  1  2  1  0  0  0  0
 15 13  1  0  0  0  0
 23 24  1  0  0  0  0
 13 14  1  0  0  0  0
 24 25  1  0  0  0  0
 26 25  1  0  0  0  0
 27 26  1  0  0  0  0
 25 27  1  0  0  0  0
 15 16  1  0  0  0  0
  9 10  2  0  0  0  0
 10  7  1  0  0  0  0
 16 28  1  1  0  0  0
 11 12  2  0  0  0  0
 28 29  1  0  0  0  0
 23 29  1  0  0  0  0
  8 12  1  0  0  0  0
  7 30  1  0  0  0  0
 17 31  1  1  0  0  0
 11  9  1  0  0  0  0
 18 32  1  1  0  0  0
 15 20  1  0  0  0  0
 32 33  1  0  0  0  0
 16 17  1  0  0  0  0
 33 34  1  0  0  0  0
 17 18  1  0  0  0  0
 33 35  2  0  0  0  0
 18 19  1  0  0  0  0
 34 36  2  0  0  0  0
 19 20  1  0  0  0  0
 36 37  1  0  0  0  0
  7  8  2  0  0  0  0
 37 38  2  0  0  0  0
 17 21  1  0  0  0  0
 38 39  1  0  0  0  0
  8 21  1  0  0  0  0
 39 40  2  0  0  0  0
 40 34  1  0  0  0  0
 11 14  1  0  0  0  0
 38 41  1  0  0  0  0
 15 22  1  1  0  0  0
 41 42  1  0  0  0  0
 12 16  1  0  0  0  0
 41 43  1  0  0  0  0
 13 23  1  0  0  0  0
 41 44  1  0  0  0  0
 13 45  1  6  0  0  0
M  END
>  <Mol Weight>
604.5709

>  <Formula>
C30H31F3N2O8

>  <chembl_id>
CHEMBL611929

$$$$

  Mrv0541 06201412482D          

 45 50  0  0  0  0            999 V2000
    9.8664  -22.1930    0.0000 C   0  0  0  0  0  0  0  0  0  0  0  0
    9.0423  -22.2062    0.0000 C   0  0  0  0  0  0  0  0  0  0  0  0
   10.2744  -21.4770    0.0000 O   0  0  0  0  0  0  0  0  0  0  0  0
   10.2865  -22.9030    0.0000 O   0  0  0  0  0  0  0  0  0  0  0  0
    8.6378  -22.9201    0.0000 O   0  0  0  0  0  0  0  0  0  0  0  0
    8.6200  -21.4927    0.0000 O   0  0  0  0  0  0  0  0  0  0  0  0
    6.4984  -17.5422    0.0000 C   0  0  0  0  0  0  0  0  0  0  0  0
    7.3256  -17.5247    0.0000 C   0  0  0  0  0  0  0  0  0  0  0  0
    6.4626  -16.1154    0.0000 C   0  0  0  0  0  0  0  0  0  0  0  0
    6.0697  -16.8398    0.0000 C   0  0  0  0  0  0  0  0  0  0  0  0
    7.2928  -16.0938    0.0000 C   0  0  0  0  0  0  0  0  0  0  0  0
    7.7233  -16.8020    0.0000 C   0  0  0  0  0  0  0  0  0  0  0  0
    8.5165  -15.3499    0.0000 C   0  0  2  0  0  0  0  0  0  0  0  0
    7.6863  -15.3670    0.0000 C   0  0  0  0  0  0  0  0  0  0  0  0
    8.9470  -16.0581    0.0000 C   0  0  1  0  0  0  0  0  0  0  0  0
    8.5480  -16.7853    0.0000 C   0  0  2  0  0  0  0  0  0  0  0  0
    8.9759  -17.4905    0.0000 C   0  0  2  0  0  0  0  0  0  0  0  0
    9.8047  -17.4747    0.0000 C   0  0  1  0  0  0  0  0  0  0  0  0
   10.2036  -16.7475    0.0000 C   0  0  0  0  0  0  0  0  0  0  0  0
    9.7739  -16.0361    0.0000 C   0  0  0  0  0  0  0  0  0  0  0  0
    8.2658  -17.9260    0.0000 O   0  0  0  0  0  0  0  0  0  0  0  0
    9.5148  -15.4639    0.0000 O   0  0  0  0  0  0  0  0  0  0  0  0
    8.9135  -14.6267    0.0000 N   0  0  0  0  0  0  0  0  0  0  0  0
    8.4856  -13.9213    0.0000 C   0  0  0  0  0  0  0  0  0  0  0  0
    7.6608  -13.9391    0.0000 C   0  0  0  0  0  0  0  0  0  0  0  0
    6.9424  -13.5417    0.0000 C   0  0  0  0  0  0  0  0  0  0  0  0
    6.9603  -14.3665    0.0000 C   0  0  0  0  0  0  0  0  0  0  0  0
    7.9971  -16.3567    0.0000 C   0  0  0  0  0  0  0  0  0  0  0  0
    7.9376  -15.0160    0.0000 C   0  0  0  0  0  0  0  0  0  0  0  0
    6.1023  -18.2659    0.0000 O   0  0  0  0  0  0  0  0  0  0  0  0
    9.2567  -18.4503    0.0000 H   0  0  0  0  0  0  0  0  0  0  0  0
   10.2317  -18.1806    0.0000 N   0  0  0  0  0  0  0  0  0  0  0  0
   11.0565  -18.1638    0.0000 C   0  0  0  0  0  0  0  0  0  0  0  0
   11.4835  -18.8697    0.0000 C   0  0  0  0  0  0  0  0  0  0  0  0
   11.4543  -17.4411    0.0000 O   0  0  0  0  0  0  0  0  0  0  0  0
   11.0841  -19.5893    0.0000 C   0  0  0  0  0  0  0  0  0  0  0  0
   11.5104  -20.2947    0.0000 C   0  0  0  0  0  0  0  0  0  0  0  0
   12.3361  -20.2783    0.0000 C   0  0  0  0  0  0  0  0  0  0  0  0
   12.7337  -19.5506    0.0000 C   0  0  0  0  0  0  0  0  0  0  0  0
   12.3050  -18.8481    0.0000 C   0  0  0  0  0  0  0  0  0  0  0  0
   12.7640  -20.9836    0.0000 C   0  0  0  0  0  0  0  0  0  0  0  0
   12.3672  -21.7069    0.0000 C   0  0  0  0  0  0  0  0  0  0  0  0
   13.5888  -20.9657    0.0000 C   0  0  0  0  0  0  0  0  0  0  0  0
   13.1709  -21.6958    0.0000 C   0  0  0  0  0  0  0  0  0  0  0  0
    7.9984  -14.4946    0.0000 H   0  0  0  0  0  0  0  0  0  0  0  0
  1  3  2  0  0  0  0
  1  4  1  0  0  0  0
  2  5  2  0  0  0  0
  2  6  1  0  0  0  0
  1  2  1  0  0  0  0
 15 13  1  0  0  0  0
 23 24  1  0  0  0  0
 13 14  1  0  0  0  0
 24 25  1  0  0  0  0
 26 25  1  0  0  0  0
 27 26  1  0  0  0  0
 25 27  1  0  0  0  0
 15 16  1  0  0  0  0
  9 10  2  0  0  0  0
 10  7  1  0  0  0  0
 16 28  1  1  0  0  0
 11 12  2  0  0  0  0
 28 29  1  0  0  0  0
 23 29  1  0  0  0  0
  8 12  1  0  0  0  0
  7 30  1  0  0  0  0
 17 31  1  1  0  0  0
 11  9  1  0  0  0  0
 18 32  1  1  0  0  0
 15 20  1  0  0  0  0
 32 33  1  0  0  0  0
 16 17  1  0  0  0  0
 33 34  1  0  0  0  0
 17 18  1  0  0  0  0
 33 35  2  0  0  0  0
 18 19  1  0  0  0  0
 34 36  2  0  0  0  0
 19 20  1  0  0  0  0
 36 37  1  0  0  0  0
  7  8  2  0  0  0  0
 37 38  2  0  0  0  0
 17 21  1  0  0  0  0
 38 39  1  0  0  0  0
  8 21  1  0  0  0  0
 39 40  2  0  0  0  0
 40 34  1  0  0  0  0
 11 14  1  0  0  0  0
 38 41  1  0  0  0  0
 15 22  1  1  0  0  0
 41 42  1  0  0  0  0
 12 16  1  0  0  0  0
 41 43  1  0  0  0  0
 13 23  1  0  0  0  0
 41 44  1  0  0  0  0
 13 45  1  6  0  0  0
M  END
>  <Mol Weight>
592.6793

>  <Formula>
C33H40N2O8

>  <chembl_id>
CHEMBL611932

$$$$

  Mrv0541 06201412482D          

 45 48  0  0  0  0            999 V2000
   -0.6791    3.2164    0.0000 C   0  0  0  0  0  0  0  0  0  0  0  0
   -2.3291    0.3585    0.0000 F   0  0  0  0  0  0  0  0  0  0  0  0
   -2.3291    3.2164    0.0000 N   0  0  0  0  0  0  0  0  0  0  0  0
   -2.3291    1.7874    0.0000 O   0  0  0  0  0  0  0  0  0  0  0  0
   -1.0916    2.5019    0.0000 C   0  0  0  0  0  0  0  0  0  0  0  0
   -2.3291   -2.4994    0.0000 F   0  0  0  0  0  0  0  0  0  0  0  0
    0.1459    0.3585    0.0000 N   0  0  0  0  0  0  0  0  0  0  0  0
    1.3834    1.0730    0.0000 O   0  0  0  0  0  0  0  0  0  0  0  0
   -0.6791    1.7874    0.0000 C   0  0  0  0  0  0  0  0  0  0  0  0
    2.6209   -1.0705    0.0000 N   0  0  0  0  0  0  0  0  0  0  0  0
    1.7959    0.3585    0.0000 O   0  0  0  0  0  0  0  0  0  0  0  0
    0.1459    1.7874    0.0000 C   0  0  0  0  0  0  0  0  0  0  0  0
    1.7959   -2.4994    0.0000 N   0  0  0  0  0  0  0  0  0  0  0  0
    0.5584    2.5019    0.0000 C   0  0  0  0  0  0  0  0  0  0  0  0
    0.1459    3.2164    0.0000 C   0  0  0  0  0  0  0  0  0  0  0  0
   -1.9166    2.5019    0.0000 C   0  0  0  0  0  0  0  0  0  0  0  0
   -1.9166    3.9308    0.0000 C   0  0  0  0  0  0  0  0  0  0  0  0
   -3.1541    3.2164    0.0000 C   0  0  0  0  0  0  0  0  0  0  0  0
   -3.5666    3.9308    0.0000 C   0  0  0  0  0  0  0  0  0  0  0  0
   -4.3916    3.9308    0.0000 C   0  0  0  0  0  0  0  0  0  0  0  0
   -1.0916    3.9308    0.0000 C   0  0  0  0  0  0  0  0  0  0  0  0
   -0.6791    4.6453    0.0000 C   0  0  0  0  0  0  0  0  0  0  0  0
    0.5584    3.9308    0.0000 C   0  0  0  0  0  0  0  0  0  0  0  0
    0.5584    1.0730    0.0000 C   0  0  0  0  0  0  0  0  0  0  0  0
    0.5584   -0.3560    0.0000 C   0  0  2  0  0  0  0  0  0  0  0  0
    1.3834   -0.3560    0.0000 C   0  0  1  0  0  0  0  0  0  0  0  0
    0.1459   -1.0705    0.0000 C   0  0  0  0  0  0  0  0  0  0  0  0
   -0.6791   -1.0705    0.0000 C   0  0  0  0  0  0  0  0  0  0  0  0
   -1.0916   -0.3560    0.0000 C   0  0  0  0  0  0  0  0  0  0  0  0
   -1.9166   -0.3560    0.0000 C   0  0  0  0  0  0  0  0  0  0  0  0
   -2.3291   -1.0705    0.0000 C   0  0  0  0  0  0  0  0  0  0  0  0
   -1.9166   -1.7849    0.0000 C   0  0  0  0  0  0  0  0  0  0  0  0
   -1.0916   -1.7849    0.0000 C   0  0  0  0  0  0  0  0  0  0  0  0
    1.7959   -1.0705    0.0000 C   0  0  1  0  0  0  0  0  0  0  0  0
    1.3834   -1.7849    0.0000 C   0  0  0  0  0  0  0  0  0  0  0  0
    2.6209   -2.4994    0.0000 C   0  0  0  0  0  0  0  0  0  0  0  0
    3.0334   -1.7849    0.0000 C   0  0  0  0  0  0  0  0  0  0  0  0
    1.3834   -3.2139    0.0000 C   0  0  0  0  0  0  0  0  0  0  0  0
    1.7959   -3.9283    0.0000 C   0  0  0  0  0  0  0  0  0  0  0  0
    1.3834   -4.6428    0.0000 C   0  0  0  0  0  0  0  0  0  0  0  0
    1.7959   -5.3573    0.0000 C   0  0  0  0  0  0  0  0  0  0  0  0
    2.6209   -5.3573    0.0000 C   0  0  0  0  0  0  0  0  0  0  0  0
    3.0334   -4.6428    0.0000 C   0  0  0  0  0  0  0  0  0  0  0  0
    2.6209   -3.9283    0.0000 C   0  0  0  0  0  0  0  0  0  0  0  0
    2.2959   -1.9365    0.0000 H   0  0  0  0  0  0  0  0  0  0  0  0
  1  5  2  0  0  0  0
  1 15  1  0  0  0  0
 30  2  1  0  0  0  0
 18  3  1  0  0  0  0
 17  3  1  0  0  0  0
 16  3  1  0  0  0  0
 16  4  2  0  0  0  0
  5 16  1  0  0  0  0
  5  9  1  0  0  0  0
 32  6  1  0  0  0  0
 25  7  1  6  0  0  0
 24  7  1  0  0  0  0
 24  8  2  0  0  0  0
  9 12  2  0  0  0  0
 34 10  1  0  0  0  0
 37 10  1  0  0  0  0
 26 11  1  6  0  0  0
 24 12  1  0  0  0  0
 12 14  1  0  0  0  0
 35 13  1  0  0  0  0
 38 13  1  0  0  0  0
 36 13  1  0  0  0  0
 14 15  2  0  0  0  0
 23 15  1  0  0  0  0
 21 17  1  0  0  0  0
 19 18  1  0  0  0  0
 19 20  1  0  0  0  0
 21 22  1  0  0  0  0
 25 27  1  0  0  0  0
 25 26  1  0  0  0  0
 34 26  1  0  0  0  0
 27 28  1  0  0  0  0
 28 33  2  0  0  0  0
 28 29  1  0  0  0  0
 29 30  2  0  0  0  0
 30 31  1  0  0  0  0
 31 32  2  0  0  0  0
 32 33  1  0  0  0  0
 34 35  1  0  0  0  0
 36 37  1  0  0  0  0
 38 39  1  0  0  0  0
 39 44  2  0  0  0  0
 39 40  1  0  0  0  0
 40 41  2  0  0  0  0
 41 42  1  0  0  0  0
 42 43  2  0  0  0  0
 43 44  1  0  0  0  0
 34 45  1  1  0  0  0
M  END
>  <Mol Weight>
606.7457

>  <Formula>
C35H44F2N4O3

>  <chembl_id>
CHEMBL1097356

$$$$

  Mrv0541 06201412482D          

 42 47  0  0  0  0            999 V2000
   -1.4953    1.1197    0.0000 C   0  0  1  0  0  0  0  0  0  0  0  0
   -2.2098    1.5321    0.0000 C   0  0  0  0  0  0  0  0  0  0  0  0
   -2.9243    1.1196    0.0000 C   0  0  0  0  0  0  0  0  0  0  0  0
   -2.9243    0.2946    0.0000 C   0  0  1  0  0  0  0  0  0  0  0  0
   -2.2098   -0.1179    0.0000 C   0  0  0  0  0  0  0  0  0  0  0  0
   -1.4953    0.2947    0.0000 C   0  0  1  0  0  0  0  0  0  0  0  0
   -0.7808    1.5322    0.0000 C   0  0  2  0  0  0  0  0  0  0  0  0
   -0.0664    1.1197    0.0000 C   0  0  1  0  0  0  0  0  0  0  0  0
   -0.0664    0.2947    0.0000 C   0  0  0  0  0  0  0  0  0  0  0  0
   -0.7809   -0.1178    0.0000 C   0  0  0  0  0  0  0  0  0  0  0  0
   -0.7809    2.3572    0.0000 C   0  0  0  0  0  0  0  0  0  0  0  0
   -0.0664    2.7697    0.0000 C   0  0  0  0  0  0  0  0  0  0  0  0
    0.6481    2.3572    0.0000 C   0  0  1  0  0  0  0  0  0  0  0  0
    0.6481    1.5322    0.0000 C   0  0  2  0  0  0  0  0  0  0  0  0
    1.4327    1.2773    0.0000 C   0  0  0  0  0  0  0  0  0  0  0  0
    1.9176    1.9447    0.0000 C   0  0  0  0  0  0  0  0  0  0  0  0
    1.4327    2.6121    0.0000 C   0  0  2  0  0  0  0  0  0  0  0  0
    1.6876    3.3968    0.0000 C   0  0  0  0  0  0  0  0  0  0  0  0
    2.4723    3.6517    0.0000 C   0  0  0  0  0  0  0  0  0  0  0  0
    2.4723    4.4767    0.0000 O   0  0  0  0  0  0  0  0  0  0  0  0
    1.6876    4.7316    0.0000 C   0  0  0  0  0  0  0  0  0  0  0  0
    1.2027    4.0642    0.0000 C   0  0  0  0  0  0  0  0  0  0  0  0
    1.4327    5.5162    0.0000 O   0  0  0  0  0  0  0  0  0  0  0  0
    0.6481    0.7072    0.0000 O   0  0  0  0  0  0  0  0  0  0  0  0
    0.6481    3.1822    0.0000 C   0  0  0  0  0  0  0  0  0  0  0  0
   -0.0664    1.9447    0.0000 H   0  0  0  0  0  0  0  0  0  0  0  0
   -0.7808    0.7072    0.0000 H   0  0  0  0  0  0  0  0  0  0  0  0
   -1.4953    1.9447    0.0000 C   0  0  0  0  0  0  0  0  0  0  0  0
   -2.2098    2.3572    0.0000 O   0  0  0  0  0  0  0  0  0  0  0  0
   -3.6388   -0.1179    0.0000 O   0  0  0  0  0  0  0  0  0  0  0  0
   -1.4953   -0.5303    0.0000 O   0  0  0  0  0  0  0  0  0  0  0  0
   -4.3533    0.2946    0.0000 C   0  0  2  0  0  0  0  0  0  0  0  0
   -4.3533    1.1196    0.0000 C   0  0  1  0  0  0  0  0  0  0  0  0
   -5.0677    1.5321    0.0000 C   0  0  1  0  0  0  0  0  0  0  0  0
   -5.7822    1.1197    0.0000 C   0  0  2  0  0  0  0  0  0  0  0  0
   -5.7822    0.2947    0.0000 C   0  0  1  0  0  0  0  0  0  0  0  0
   -5.0677   -0.1179    0.0000 O   0  0  0  0  0  0  0  0  0  0  0  0
   -5.0677    2.3571    0.0000 O   0  0  0  0  0  0  0  0  0  0  0  0
   -3.6388    1.5321    0.0000 O   0  0  0  0  0  0  0  0  0  0  0  0
   -6.4967    1.5322    0.0000 O   0  0  0  0  0  0  0  0  0  0  0  0
   -6.4967   -0.1179    0.0000 C   0  0  0  0  0  0  0  0  0  0  0  0
   -2.9243   -0.5304    0.0000 H   0  0  0  0  0  0  0  0  0  0  0  0
  1  2  1  0  0  0  0
  2  3  1  0  0  0  0
  3  4  1  0  0  0  0
  4  5  1  0  0  0  0
  5  6  1  0  0  0  0
 10  6  1  0  0  0  0
  6  1  1  0  0  0  0
  1  7  1  0  0  0  0
  8  9  1  0  0  0  0
  9 10  1  0  0  0  0
 14  8  1  0  0  0  0
  8  7  1  0  0  0  0
  7 11  1  0  0  0  0
 11 12  1  0  0  0  0
 12 13  1  0  0  0  0
 13 17  1  0  0  0  0
 13 14  1  0  0  0  0
 14 15  1  0  0  0  0
 15 16  1  0  0  0  0
 16 17  1  0  0  0  0
 17 18  1  1  0  0  0
 18 19  1  0  0  0  0
 18 22  2  0  0  0  0
 19 20  1  0  0  0  0
 20 21  1  0  0  0  0
 21 22  1  0  0  0  0
 21 23  2  0  0  0  0
 14 24  1  1  0  0  0
 13 25  1  1  0  0  0
  8 26  1  1  0  0  0
  7 27  1  6  0  0  0
  1 28  1  1  0  0  0
 28 29  1  0  0  0  0
  4 30  1  0  0  0  0
  6 31  1  1  0  0  0
 32 30  1  1  0  0  0
 32 33  1  0  0  0  0
 37 32  1  0  0  0  0
 33 34  1  0  0  0  0
 34 35  1  0  0  0  0
 35 36  1  0  0  0  0
 36 37  1  0  0  0  0
 34 38  1  1  0  0  0
 33 39  1  1  0  0  0
 35 40  1  6  0  0  0
 36 41  1  1  0  0  0
  4 42  1  6  0  0  0
M  END
>  <Mol Weight>
552.6537

>  <Formula>
C29H44O10

>  <chembl_id>
CHEMBL1170234

$$$$

  Mrv0541 06201412482D          

 43 47  0  0  0  0            999 V2000
    2.1714    0.1547    0.0000 C   0  0  0  0  0  0  0  0  0  0  0  0
    7.1902    1.3750    0.0000 C   0  0  0  0  0  0  0  0  0  0  0  0
    5.0417    0.1375    0.0000 N   0  0  0  0  0  0  0  0  0  0  0  0
    1.2777   -0.8308    0.0000 N   0  0  0  0  0  0  0  0  0  0  0  0
    4.2855   -4.3828    0.0000 N   0  0  0  0  0  0  0  0  0  0  0  0
    2.0855   -0.6703    0.0000 C   0  0  0  0  0  0  0  0  0  0  0  0
    7.1902    0.5500    0.0000 C   0  0  0  0  0  0  0  0  0  0  0  0
    5.0417   -0.6875    0.0000 C   0  0  0  0  0  0  0  0  0  0  0  0
    6.4683    0.1317    0.0000 C   0  0  0  0  0  0  0  0  0  0  0  0
    1.4151    0.4927    0.0000 C   0  0  0  0  0  0  0  0  0  0  0  0
    3.5980   -1.5011    0.0000 C   0  0  0  0  0  0  0  0  0  0  0  0
    5.7636    0.5500    0.0000 C   0  0  0  0  0  0  0  0  0  0  0  0
    4.3027   -2.7386    0.0000 N   0  0  0  0  0  0  0  0  0  0  0  0
    3.5980   -0.6761    0.0000 N   0  0  0  0  0  0  0  0  0  0  0  0
    0.8652   -0.1203    0.0000 C   0  0  0  0  0  0  0  0  0  0  0  0
    2.8933    0.5614    0.0000 C   0  0  0  0  0  0  0  0  0  0  0  0
    3.6151    0.1489    0.0000 C   0  0  0  0  0  0  0  0  0  0  0  0
    4.3198    0.5500    0.0000 C   0  0  0  0  0  0  0  0  0  0  0  0
    3.5808   -3.9531    0.0000 C   0  0  0  0  0  0  0  0  0  0  0  0
    4.9902   -3.9703    0.0000 C   0  0  0  0  0  0  0  0  0  0  0  0
    4.3714   -1.9078    0.0000 C   0  0  0  0  0  0  0  0  0  0  0  0
    4.2683   -5.1964    0.0000 C   0  0  0  0  0  0  0  0  0  0  0  0
    4.3198   -1.0886    0.0000 O   0  0  0  0  0  0  0  0  0  0  0  0
    2.8761   -1.9078    0.0000 O   0  0  0  0  0  0  0  0  0  0  0  0
    7.1902    2.1313    0.0000 F   0  0  0  0  0  0  0  0  0  0  0  0
    7.8433    1.9250    0.0000 F   0  0  0  0  0  0  0  0  0  0  0  0
    6.5198    1.9192    0.0000 F   0  0  0  0  0  0  0  0  0  0  0  0
    3.5808   -3.1453    0.0000 C   0  0  0  0  0  0  0  0  0  0  0  0
    5.0073   -3.1511    0.0000 C   0  0  0  0  0  0  0  0  0  0  0  0
    5.7464   -1.1000    0.0000 C   0  0  0  0  0  0  0  0  0  0  0  0
    6.4511   -0.8422    0.0000 C   0  0  0  0  0  0  0  0  0  0  0  0
    1.1745    1.2719    0.0000 C   0  0  0  0  0  0  0  0  0  0  0  0
    7.9120    0.1375    0.0000 C   0  0  0  0  0  0  0  0  0  0  0  0
    0.0745    0.0516    0.0000 C   0  0  0  0  0  0  0  0  0  0  0  0
    4.9730   -5.6203    0.0000 C   0  0  0  0  0  0  0  0  0  0  0  0
    3.5464   -5.5917    0.0000 C   0  0  0  0  0  0  0  0  0  0  0  0
    7.2073   -1.2031    0.0000 C   0  0  0  0  0  0  0  0  0  0  0  0
    0.3667    1.4438    0.0000 C   0  0  0  0  0  0  0  0  0  0  0  0
    7.8605   -0.6531    0.0000 C   0  0  0  0  0  0  0  0  0  0  0  0
   -0.1833    0.8364    0.0000 C   0  0  0  0  0  0  0  0  0  0  0  0
    4.9730   -6.4453    0.0000 C   0  0  0  0  0  0  0  0  0  0  0  0
    3.5464   -6.4281    0.0000 C   0  0  0  0  0  0  0  0  0  0  0  0
    4.2511   -6.8464    0.0000 C   0  0  0  0  0  0  0  0  0  0  0  0
  2  7  1  0  0  0  0
  3 18  1  0  0  0  0
  4  6  1  0  0  0  0
  5 20  1  0  0  0  0
  6  1  2  0  0  0  0
  7  9  1  0  0  0  0
  8  3  1  0  0  0  0
  9 12  1  0  0  0  0
 10  1  1  0  0  0  0
 11 14  1  0  0  0  0
 12  3  1  0  0  0  0
 13 21  1  0  0  0  0
 14 17  1  0  0  0  0
 15 10  2  0  0  0  0
 16  1  1  0  0  0  0
 17 16  1  0  0  0  0
 18 17  1  0  0  0  0
 19 28  1  0  0  0  0
 20 29  1  0  0  0  0
 21 11  1  0  0  0  0
 22  5  1  0  0  0  0
 23  8  2  0  0  0  0
 24 11  2  0  0  0  0
 25  2  1  0  0  0  0
 26  2  1  0  0  0  0
 27  2  1  0  0  0  0
 28 13  1  0  0  0  0
 29 13  1  0  0  0  0
 30  8  1  0  0  0  0
 31  9  2  0  0  0  0
 32 10  1  0  0  0  0
 33  7  2  0  0  0  0
 34 15  1  0  0  0  0
 35 22  1  0  0  0  0
 36 22  2  0  0  0  0
 37 31  1  0  0  0  0
 38 32  2  0  0  0  0
 39 37  2  0  0  0  0
 40 38  1  0  0  0  0
 41 35  2  0  0  0  0
 42 36  1  0  0  0  0
 43 42  2  0  0  0  0
 15  4  1  0  0  0  0
 40 34  2  0  0  0  0
 19  5  1  0  0  0  0
 39 33  1  0  0  0  0
 41 43  1  0  0  0  0
M  END
>  <Mol Weight>
591.6664

>  <Formula>
C33H36F3N5O2

>  <chembl_id>
CHEMBL165949

$$$$

  Mrv0541 06201412482D          

 46 51  0  0  0  0            999 V2000
   21.9500  -13.8750    0.0000 C   0  0  0  0  0  0  0  0  0  0  0  0
   21.9500  -14.7000    0.0000 C   0  0  0  0  0  0  0  0  0  0  0  0
   22.6620  -15.1083    0.0000 C   0  0  0  0  0  0  0  0  0  0  0  0
   22.6620  -13.4583    0.0000 C   0  0  0  0  0  0  0  0  0  0  0  0
   21.2361  -15.1135    0.0000 O   0  0  0  0  0  0  0  0  0  0  0  0
   22.2417  -15.8208    0.0000 C   0  0  0  0  0  0  0  0  0  0  0  0
   23.0667  -15.8208    0.0000 C   0  0  0  0  0  0  0  0  0  0  0  0
   23.3740  -13.8750    0.0000 C   0  0  2  0  0  0  0  0  0  0  0  0
   24.0861  -15.1093    0.0000 C   0  0  0  0  0  0  0  0  0  0  0  0
   24.8007  -14.6982    0.0000 C   0  0  0  0  0  0  0  0  0  0  0  0
   23.3667  -13.0500    0.0000 C   0  0  0  0  0  0  0  0  0  0  0  0
   24.8016  -13.8738    0.0000 C   0  0  1  0  0  0  0  0  0  0  0  0
   24.8003  -12.2194    0.0000 C   0  0  0  0  0  0  0  0  0  0  0  0
   24.0803  -12.6329    0.0000 C   0  0  0  0  0  0  0  0  0  0  0  0
   24.7958  -13.0458    0.0000 C   0  0  0  0  0  0  0  0  0  0  0  0
   25.5122  -13.4625    0.0000 C   0  0  1  0  0  0  0  0  0  0  0  0
   26.2230  -13.8794    0.0000 C   0  0  0  0  0  0  0  0  0  0  0  0
   26.9440  -13.4723    0.0000 C   0  0  0  0  0  0  0  0  0  0  0  0
   25.5042  -14.2875    0.0000 C   0  0  0  0  0  0  0  0  0  0  0  0
   26.9448  -12.6436    0.0000 C   0  0  2  0  0  0  0  0  0  0  0  0
   27.5651  -12.0981    0.0000 C   0  0  0  0  0  0  0  0  0  0  0  0
   27.2380  -11.3395    0.0000 C   0  0  0  0  0  0  0  0  0  0  0  0
   26.4156  -11.4163    0.0000 C   0  0  1  0  0  0  0  0  0  0  0  0
   25.8708  -10.7968    0.0000 C   0  0  0  0  0  0  0  0  0  0  0  0
   26.1349  -10.0153    0.0000 C   0  0  0  0  0  0  0  0  0  0  0  0
   25.0618  -10.9589    0.0000 C   0  0  0  0  0  0  0  0  0  0  0  0
   27.6542  -13.0542    0.0000 C   0  0  0  0  0  0  0  0  0  0  0  0
   28.3691  -12.6425    0.0000 O   0  0  0  0  0  0  0  0  0  0  0  0
   21.2343  -13.4646    0.0000 O   0  0  0  0  0  0  0  0  0  0  0  0
   20.5211  -13.8792    0.0000 C   0  0  0  0  0  0  0  0  0  0  0  0
   19.8054  -13.4688    0.0000 N   0  0  0  0  0  0  0  0  0  0  0  0
   20.5235  -14.7042    0.0000 O   0  0  0  0  0  0  0  0  0  0  0  0
   19.7146  -12.6502    0.0000 C   0  0  0  0  0  0  0  0  0  0  0  0
   18.9071  -12.4810    0.0000 N   0  0  0  0  0  0  0  0  0  0  0  0
   18.4967  -13.1968    0.0000 C   0  0  0  0  0  0  0  0  0  0  0  0
   19.0506  -13.8081    0.0000 C   0  0  0  0  0  0  0  0  0  0  0  0
   20.3253  -12.0955    0.0000 C   0  0  0  0  0  0  0  0  0  0  0  0
   27.6533  -13.8792    0.0000 O   0  0  0  0  0  0  0  0  0  0  0  0
   26.2343  -12.2222    0.0000 C   0  0  2  0  0  0  0  0  0  0  0  0
   26.2343  -13.0472    0.0000 H   0  0  0  0  0  0  0  0  0  0  0  0
   25.5179  -12.6339    0.0000 C   0  0  1  0  0  0  0  0  0  0  0  0
   25.5179  -11.8089    0.0000 H   0  0  0  0  0  0  0  0  0  0  0  0
   24.0840  -13.4593    0.0000 C   0  0  2  0  0  0  0  0  0  0  0  0
   24.0840  -14.2843    0.0000 H   0  0  0  0  0  0  0  0  0  0  0  0
   23.3751  -14.7000    0.0000 C   0  0  1  0  0  0  0  0  0  0  0  0
   23.3751  -15.5250    0.0000 H   0  0  0  0  0  0  0  0  0  0  0  0
 41 39  1  0  0  0  0
 16 17  1  0  0  0  0
 17 18  1  0  0  0  0
 18 20  1  0  0  0  0
  8 43  1  0  0  0  0
 16 19  1  6  0  0  0
 39 20  1  0  0  0  0
 45  9  1  0  0  0  0
  9 10  1  0  0  0  0
 10 12  1  0  0  0  0
  2  5  2  0  0  0  0
  8 11  1  1  0  0  0
 20 21  1  0  0  0  0
 21 22  1  0  0  0  0
 22 23  1  0  0  0  0
 23 39  1  0  0  0  0
 43 12  1  0  0  0  0
 23 24  1  6  0  0  0
  1  2  1  0  0  0  0
 24 25  1  0  0  0  0
  3  6  1  0  0  0  0
 24 26  2  0  0  0  0
  1  4  2  0  0  0  0
 20 27  1  1  0  0  0
  3  7  1  0  0  0  0
 27 28  2  0  0  0  0
 43 14  1  0  0  0  0
  1 29  1  0  0  0  0
 12 16  1  0  0  0  0
 29 30  1  0  0  0  0
 41 13  1  0  0  0  0
 30 31  1  0  0  0  0
 13 14  1  0  0  0  0
 30 32  2  0  0  0  0
 31 33  1  0  0  0  0
  8 45  1  0  0  0  0
 12 15  1  1  0  0  0
 41 16  1  0  0  0  0
  2  3  1  0  0  0  0
 33 34  2  0  0  0  0
 34 35  1  0  0  0  0
 35 36  2  0  0  0  0
 36 31  1  0  0  0  0
  3 45  1  0  0  0  0
 33 37  1  0  0  0  0
  8  4  1  0  0  0  0
 27 38  1  0  0  0  0
 39 40  1  6  0  0  0
 41 42  1  1  0  0  0
 43 44  1  6  0  0  0
 45 46  1  6  0  0  0
M  END
>  <Mol Weight>
576.766

>  <Formula>
C35H48N2O5

>  <chembl_id>
CHEMBL1164909

$$$$

  Mrv0541 06201412482D          

 45 50  0  0  0  0            999 V2000
   -5.3068  -16.5586    0.0000 C   0  0  0  0  0  0  0  0  0  0  0  0
   -5.3060  -17.3869    0.0000 C   0  0  0  0  0  0  0  0  0  0  0  0
   -4.5930  -17.7965    0.0000 N   0  0  0  0  0  0  0  0  0  0  0  0
   -4.5987  -16.1416    0.0000 C   0  0  0  0  0  0  0  0  0  0  0  0
   -3.8809  -16.5517    0.0000 C   0  0  0  0  0  0  0  0  0  0  0  0
   -3.8773  -17.3827    0.0000 C   0  0  0  0  0  0  0  0  0  0  0  0
   -4.6029  -15.3151    0.0000 C   0  0  0  0  0  0  0  0  0  0  0  0
   -3.8889  -14.9002    0.0000 N   0  0  0  0  0  0  0  0  0  0  0  0
   -5.3173  -14.9078    0.0000 O   0  0  0  0  0  0  0  0  0  0  0  0
   -3.1712  -15.3125    0.0000 C   0  0  0  0  0  0  0  0  0  0  0  0
   -2.4592  -14.9011    0.0000 C   0  0  0  0  0  0  0  0  0  0  0  0
   -2.4593  -14.0702    0.0000 N   0  0  0  0  0  0  0  0  0  0  0  0
   -3.1777  -13.6607    0.0000 C   0  0  0  0  0  0  0  0  0  0  0  0
   -3.8958  -14.0779    0.0000 C   0  0  0  0  0  0  0  0  0  0  0  0
   -1.7428  -13.6592    0.0000 C   0  0  0  0  0  0  0  0  0  0  0  0
   -1.0260  -14.0756    0.0000 C   0  0  0  0  0  0  0  0  0  0  0  0
   -0.3124  -13.6628    0.0000 C   0  0  0  0  0  0  0  0  0  0  0  0
   -0.3094  -12.8359    0.0000 N   0  0  0  0  0  0  0  0  0  0  0  0
   -1.0262  -12.4196    0.0000 C   0  0  0  0  0  0  0  0  0  0  0  0
   -1.7460  -12.8342    0.0000 C   0  0  0  0  0  0  0  0  0  0  0  0
    0.4035  -12.4223    0.0000 C   0  0  0  0  0  0  0  0  0  0  0  0
    0.4053  -11.5958    0.0000 O   0  0  0  0  0  0  0  0  0  0  0  0
    1.1157  -12.8369    0.0000 C   0  0  0  0  0  0  0  0  0  0  0  0
    1.1093  -13.6561    0.0000 C   0  0  0  0  0  0  0  0  0  0  0  0
    1.8174  -14.0664    0.0000 C   0  0  0  0  0  0  0  0  0  0  0  0
    2.5336  -13.6620    0.0000 N   0  0  0  0  0  0  0  0  0  0  0  0
    2.5370  -12.8384    0.0000 C   0  0  0  0  0  0  0  0  0  0  0  0
    1.8244  -12.4193    0.0000 C   0  0  0  0  0  0  0  0  0  0  0  0
   -3.1619  -17.7873    0.0000 C   0  0  0  0  0  0  0  0  0  0  0  0
   -3.1602  -18.6149    0.0000 C   0  0  0  0  0  0  0  0  0  0  0  0
   -2.4432  -19.0275    0.0000 C   0  0  0  0  0  0  0  0  0  0  0  0
   -1.7274  -18.6094    0.0000 C   0  0  0  0  0  0  0  0  0  0  0  0
   -1.7332  -17.7787    0.0000 C   0  0  0  0  0  0  0  0  0  0  0  0
   -2.4508  -17.3741    0.0000 C   0  0  0  0  0  0  0  0  0  0  0  0
   -6.0259  -17.7994    0.0000 C   0  0  0  0  0  0  0  0  0  0  0  0
   -6.7374  -17.3876    0.0000 C   0  0  0  0  0  0  0  0  0  0  0  0
   -7.4508  -17.7991    0.0000 C   0  0  0  0  0  0  0  0  0  0  0  0
   -7.4516  -18.6265    0.0000 C   0  0  0  0  0  0  0  0  0  0  0  0
   -6.7283  -19.0405    0.0000 C   0  0  0  0  0  0  0  0  0  0  0  0
   -6.0202  -18.6225    0.0000 C   0  0  0  0  0  0  0  0  0  0  0  0
    3.2429  -14.0780    0.0000 C   0  0  0  0  0  0  0  0  0  0  0  0
    3.2372  -14.9002    0.0000 O   0  0  0  0  0  0  0  0  0  0  0  0
    3.9577  -13.6718    0.0000 C   0  0  0  0  0  0  0  0  0  0  0  0
    4.6670  -14.0877    0.0000 O   0  0  0  0  0  0  0  0  0  0  0  0
    5.3820  -13.6815    0.0000 C   0  0  0  0  0  0  0  0  0  0  0  0
 21 22  2  0  0  0  0
  2  3  2  0  0  0  0
 21 23  1  0  0  0  0
 23 24  1  0  0  0  0
  5  6  2  0  0  0  0
  3  6  1  0  0  0  0
  8 14  1  0  0  0  0
 10 11  1  0  0  0  0
 11 12  1  0  0  0  0
 23 28  1  0  0  0  0
 24 25  1  0  0  0  0
 25 26  1  0  0  0  0
 26 27  1  0  0  0  0
 27 28  1  0  0  0  0
 12 13  1  0  0  0  0
 13 14  1  0  0  0  0
 29 30  2  0  0  0  0
 15 16  1  0  0  0  0
 30 31  1  0  0  0  0
  4  7  1  0  0  0  0
 31 32  2  0  0  0  0
  1  2  1  0  0  0  0
 32 33  1  0  0  0  0
  7  8  1  0  0  0  0
 33 34  2  0  0  0  0
 34 29  1  0  0  0  0
  6 29  1  0  0  0  0
  5  4  1  0  0  0  0
  7  9  2  0  0  0  0
 35 36  2  0  0  0  0
  8 10  1  0  0  0  0
 36 37  1  0  0  0  0
 15 20  1  0  0  0  0
 37 38  2  0  0  0  0
 16 17  1  0  0  0  0
 38 39  1  0  0  0  0
 17 18  1  0  0  0  0
 39 40  2  0  0  0  0
 40 35  1  0  0  0  0
  2 35  1  0  0  0  0
 18 19  1  0  0  0  0
 26 41  1  0  0  0  0
 19 20  1  0  0  0  0
 41 42  2  0  0  0  0
 12 15  1  0  0  0  0
 41 43  1  0  0  0  0
  4  1  2  0  0  0  0
 43 44  1  0  0  0  0
 18 21  1  0  0  0  0
 44 45  1  0  0  0  0
M  END
>  <Mol Weight>
609.7577

>  <Formula>
C36H43N5O4

>  <chembl_id>
CHEMBL1076217

$$$$

  Mrv0541 06201412482D          

 47 51  0  0  0  0            999 V2000
   -2.6050   -3.9304    0.0000 C   0  0  0  0  0  0  0  0  0  0  0  0
   -2.6050   -4.7556    0.0000 C   0  0  0  0  0  0  0  0  0  0  0  0
   -1.8927   -5.1641    0.0000 N   0  0  0  0  0  0  0  0  0  0  0  0
   -1.8927   -3.5136    0.0000 C   0  0  0  0  0  0  0  0  0  0  0  0
   -1.1805   -3.9304    0.0000 C   0  0  1  0  0  0  0  0  0  0  0  0
   -1.1795   -4.7556    0.0000 C   0  0  1  0  0  0  0  0  0  0  0  0
   -0.4681   -5.1651    0.0000 C   0  0  0  0  0  0  0  0  0  0  0  0
    0.2466   -4.7537    0.0000 C   0  0  0  0  0  0  0  0  0  0  0  0
   -0.4702   -3.5146    0.0000 C   0  0  2  0  0  0  0  0  0  0  0  0
    0.2475   -3.9292    0.0000 C   0  0  2  0  0  0  0  0  0  0  0  0
    0.2463   -2.2743    0.0000 C   0  0  0  0  0  0  0  0  0  0  0  0
   -0.4740   -2.6879    0.0000 C   0  0  0  0  0  0  0  0  0  0  0  0
    0.9640   -2.6889    0.0000 C   0  0  1  0  0  0  0  0  0  0  0  0
    0.9609   -3.5187    0.0000 C   0  0  1  0  0  0  0  0  0  0  0  0
    1.7490   -3.7780    0.0000 C   0  0  0  0  0  0  0  0  0  0  0  0
    2.2393   -3.1085    0.0000 C   0  0  0  0  0  0  0  0  0  0  0  0
    1.7540   -2.4355    0.0000 C   0  0  2  0  0  0  0  0  0  0  0  0
   -3.3190   -5.1693    0.0000 O   0  0  0  0  0  0  0  0  0  0  0  0
   -1.8930   -5.9893    0.0000 C   0  0  0  0  0  0  0  0  0  0  0  0
   -1.1879   -3.1051    0.0000 C   0  0  0  0  0  0  0  0  0  0  0  0
    0.9586   -1.8631    0.0000 C   0  0  0  0  0  0  0  0  0  0  0  0
    0.2418   -3.1009    0.0000 H   0  0  0  0  0  0  0  0  0  0  0  0
   -0.4751   -4.3388    0.0000 H   0  0  0  0  0  0  0  0  0  0  0  0
    0.9545   -4.3430    0.0000 H   0  0  0  0  0  0  0  0  0  0  0  0
    2.0119   -1.6519    0.0000 N   0  0  0  0  0  0  0  0  0  0  0  0
    1.5776   -0.9505    0.0000 C   0  0  0  0  0  0  0  0  0  0  0  0
    0.7540   -0.9763    0.0000 C   0  0  0  0  0  0  0  0  0  0  0  0
    0.3227   -0.2763    0.0000 C   0  0  0  0  0  0  0  0  0  0  0  0
   -0.5009   -0.3021    0.0000 C   0  0  0  0  0  0  0  0  0  0  0  0
   -0.9323    0.3980    0.0000 C   0  0  0  0  0  0  0  0  0  0  0  0
   -1.7558    0.3721    0.0000 C   0  0  0  0  0  0  0  0  0  0  0  0
   -2.1872    1.0722    0.0000 C   0  0  0  0  0  0  0  0  0  0  0  0
   -3.0107    1.0463    0.0000 C   0  0  0  0  0  0  0  0  0  0  0  0
   -3.4420    1.7464    0.0000 C   0  0  0  0  0  0  0  0  0  0  0  0
   -4.2656    1.7206    0.0000 C   0  0  0  0  0  0  0  0  0  0  0  0
   -4.6969    2.4206    0.0000 C   0  0  0  0  0  0  0  0  0  0  0  0
   -5.5206    2.3948    0.0000 C   0  0  0  0  0  0  0  0  0  0  0  0
    2.8370   -1.6546    0.0000 C   0  0  0  0  0  0  0  0  0  0  0  0
    3.2476   -2.3704    0.0000 O   0  0  0  0  0  0  0  0  0  0  0  0
    3.2516   -0.9411    0.0000 C   0  0  0  0  0  0  0  0  0  0  0  0
    4.0778   -0.9479    0.0000 C   0  0  0  0  0  0  0  0  0  0  0  0
    4.4924   -0.2352    0.0000 C   0  0  0  0  0  0  0  0  0  0  0  0
    4.0817    0.4816    0.0000 C   0  0  0  0  0  0  0  0  0  0  0  0
    3.2522    0.4813    0.0000 C   0  0  0  0  0  0  0  0  0  0  0  0
    2.8414   -0.2320    0.0000 C   0  0  0  0  0  0  0  0  0  0  0  0
    4.4954    1.1958    0.0000 F   0  0  0  0  0  0  0  0  0  0  0  0
   -1.1837   -5.5767    0.0000 H   0  0  0  0  0  0  0  0  0  0  0  0
 10 22  1  1  0  0  0
  5  6  1  0  0  0  0
  9 23  1  6  0  0  0
 14 24  1  6  0  0  0
  9 12  1  0  0  0  0
 17 25  1  1  0  0  0
 10 14  1  0  0  0  0
 25 26  1  0  0  0  0
 13 11  1  0  0  0  0
 26 27  1  0  0  0  0
 11 12  1  0  0  0  0
 27 28  1  0  0  0  0
 13 14  1  0  0  0  0
 28 29  1  0  0  0  0
  1  2  1  0  0  0  0
 29 30  1  0  0  0  0
  1  4  1  0  0  0  0
 30 31  1  0  0  0  0
  2  3  1  0  0  0  0
 31 32  1  0  0  0  0
  5  9  1  0  0  0  0
 32 33  1  0  0  0  0
  6  7  1  0  0  0  0
 33 34  1  0  0  0  0
 14 15  1  0  0  0  0
 34 35  1  0  0  0  0
 15 16  1  0  0  0  0
 35 36  1  0  0  0  0
 16 17  1  0  0  0  0
 36 37  1  0  0  0  0
 17 13  1  0  0  0  0
 25 38  1  0  0  0  0
  7  8  1  0  0  0  0
 38 39  2  0  0  0  0
  2 18  2  0  0  0  0
 38 40  1  0  0  0  0
  8 10  1  0  0  0  0
 40 41  2  0  0  0  0
  3 19  1  0  0  0  0
 41 42  1  0  0  0  0
  9 10  1  0  0  0  0
 42 43  2  0  0  0  0
  5 20  1  1  0  0  0
 43 44  1  0  0  0  0
  3  6  1  0  0  0  0
 44 45  2  0  0  0  0
 45 40  1  0  0  0  0
 13 21  1  1  0  0  0
 43 46  1  0  0  0  0
  5  4  1  0  0  0  0
  6 47  1  6  0  0  0
M  END
>  <Mol Weight>
594.8857

>  <Formula>
C38H59FN2O2

>  <chembl_id>
CHEMBL1077528

$$$$

  Mrv0541 06201412482D          

 42 47  0  0  0  0            999 V2000
   16.4440   -0.7969    0.0000 N   0  0  0  0  0  0  0  0  0  0  0  0
   17.1557   -0.3746    0.0000 C   0  0  0  0  0  0  0  0  0  0  0  0
   17.8756   -0.7822    0.0000 O   0  0  0  0  0  0  0  0  0  0  0  0
   17.1472    0.4505    0.0000 N   0  0  0  0  0  0  0  0  0  0  0  0
   17.8589    0.8681    0.0000 C   0  0  0  0  0  0  0  0  0  0  0  0
   17.8504    1.6933    0.0000 C   0  0  0  0  0  0  0  0  0  0  0  0
   18.5574    2.1154    0.0000 C   0  0  0  0  0  0  0  0  0  0  0  0
   19.2774    1.7078    0.0000 C   0  0  0  0  0  0  0  0  0  0  0  0
   19.2857    0.8826    0.0000 C   0  0  0  0  0  0  0  0  0  0  0  0
   18.5742    0.4650    0.0000 C   0  0  0  0  0  0  0  0  0  0  0  0
   15.7240   -0.3892    0.0000 C   0  0  0  0  0  0  0  0  0  0  0  0
   15.0172   -0.8114    0.0000 C   0  0  0  0  0  0  0  0  0  0  0  0
   14.2970   -0.4037    0.0000 C   0  0  0  0  0  0  0  0  0  0  0  0
   14.2887    0.4214    0.0000 C   0  0  0  0  0  0  0  0  0  0  0  0
   15.0003    0.8390    0.0000 C   0  0  0  0  0  0  0  0  0  0  0  0
   15.7156    0.4359    0.0000 C   0  0  0  0  0  0  0  0  0  0  0  0
   12.4953    1.6225    0.0000 N   0  0  0  0  0  0  0  0  0  0  0  0
   13.3218    1.6138    0.0000 N   0  0  0  0  0  0  0  0  0  0  0  0
   13.5687    0.8245    0.0000 C   0  0  0  0  0  0  0  0  0  0  0  0
   12.8949    0.3476    0.0000 C   0  0  0  0  0  0  0  0  0  0  0  0
   12.2344    0.8399    0.0000 C   0  0  0  0  0  0  0  0  0  0  0  0
   12.1577   -1.7035    0.0000 C   0  0  0  0  0  0  0  0  0  0  0  0
   12.1673   -0.8818    0.0000 C   0  0  0  0  0  0  0  0  0  0  0  0
   12.8862   -0.4787    0.0000 C   0  0  0  0  0  0  0  0  0  0  0  0
   13.5955   -0.8976    0.0000 C   0  0  0  0  0  0  0  0  0  0  0  0
   13.5905   -1.7184    0.0000 C   0  0  0  0  0  0  0  0  0  0  0  0
   12.8679   -2.1268    0.0000 N   0  0  0  0  0  0  0  0  0  0  0  0
   11.3696   -1.9550    0.0000 N   0  0  0  0  0  0  0  0  0  0  0  0
   11.3836   -0.6160    0.0000 C   0  0  0  0  0  0  0  0  0  0  0  0
   10.8925   -1.2812    0.0000 C   0  0  0  0  0  0  0  0  0  0  0  0
   10.0706   -1.2716    0.0000 C   0  0  0  0  0  0  0  0  0  0  0  0
    9.6472   -1.9817    0.0000 N   0  0  0  0  0  0  0  0  0  0  0  0
   10.0151   -2.7196    0.0000 C   0  0  0  0  0  0  0  0  0  0  0  0
    9.5568   -3.4088    0.0000 C   0  0  0  0  0  0  0  0  0  0  0  0
    8.7332   -3.4355    0.0000 N   0  0  0  0  0  0  0  0  0  0  0  0
    8.3447   -4.1666    0.0000 C   0  0  0  0  0  0  0  0  0  0  0  0
    7.5208   -4.1937    0.0000 C   0  0  0  0  0  0  0  0  0  0  0  0
    7.0820   -3.4956    0.0000 O   0  0  0  0  0  0  0  0  0  0  0  0
    7.4704   -2.7646    0.0000 C   0  0  0  0  0  0  0  0  0  0  0  0
    8.2945   -2.7375    0.0000 C   0  0  0  0  0  0  0  0  0  0  0  0
   12.0229    2.2973    0.0000 C   0  0  0  0  0  0  0  0  0  0  0  0
   12.3642    3.0476    0.0000 C   0  0  0  0  0  0  0  0  0  0  0  0
  1  2  1  0  0  0  0
  2  3  2  0  0  0  0
  2  4  1  0  0  0  0
  5  6  1  0  0  0  0
  6  7  2  0  0  0  0
  7  8  1  0  0  0  0
  8  9  2  0  0  0  0
  9 10  1  0  0  0  0
  5 10  2  0  0  0  0
  4  5  1  0  0  0  0
 11 12  1  0  0  0  0
 12 13  2  0  0  0  0
 13 14  1  0  0  0  0
 14 15  2  0  0  0  0
 15 16  1  0  0  0  0
 11 16  2  0  0  0  0
 17 18  1  0  0  0  0
 18 19  2  0  0  0  0
 19 20  1  0  0  0  0
 20 21  2  0  0  0  0
 17 21  1  0  0  0  0
 22 23  1  0  0  0  0
 23 24  2  0  0  0  0
 24 25  1  0  0  0  0
 25 26  2  0  0  0  0
 26 27  1  0  0  0  0
 22 27  2  0  0  0  0
 29 30  2  0  0  0  0
 28 30  1  0  0  0  0
 22 28  1  0  0  0  0
 23 29  1  0  0  0  0
 33 34  1  0  0  0  0
 35 36  1  0  0  0  0
 36 37  1  0  0  0  0
 37 38  1  0  0  0  0
 38 39  1  0  0  0  0
 39 40  1  0  0  0  0
 35 40  1  0  0  0  0
 34 35  1  0  0  0  0
 32 33  1  0  0  0  0
 31 32  1  0  0  0  0
 30 31  1  0  0  0  0
 20 24  1  0  0  0  0
 41 42  1  0  0  0  0
 17 41  1  0  0  0  0
 14 19  1  0  0  0  0
  1 11  1  0  0  0  0
M  END
>  <Mol Weight>
564.6806

>  <Formula>
C32H36N8O2

>  <chembl_id>
CHEMBL1095988

$$$$

  Mrv0541 06201412482D          

 41 46  0  0  0  0            999 V2000
   19.1959    1.8168    0.0000 N   0  0  0  0  0  0  0  0  0  0  0  0
   19.1947    0.9894    0.0000 C   0  0  0  0  0  0  0  0  0  0  0  0
   19.9097    0.5765    0.0000 N   0  0  0  0  0  0  0  0  0  0  0  0
   20.6261    0.9899    0.0000 C   0  0  0  0  0  0  0  0  0  0  0  0
   20.6232    1.8204    0.0000 N   0  0  0  0  0  0  0  0  0  0  0  0
   19.9079    2.2297    0.0000 C   0  0  0  0  0  0  0  0  0  0  0  0
   18.4818    0.5771    0.0000 C   0  0  0  0  0  0  0  0  0  0  0  0
   17.7673    0.9920    0.0000 C   0  0  0  0  0  0  0  0  0  0  0  0
   17.0529    0.5807    0.0000 C   0  0  0  0  0  0  0  0  0  0  0  0
   17.0518   -0.2452    0.0000 C   0  0  0  0  0  0  0  0  0  0  0  0
   17.7711   -0.6582    0.0000 C   0  0  0  0  0  0  0  0  0  0  0  0
   18.4825   -0.2445    0.0000 C   0  0  0  0  0  0  0  0  0  0  0  0
   19.9078    3.0512    0.0000 N   0  0  0  0  0  0  0  0  0  0  0  0
   20.6228    3.4647    0.0000 C   0  0  0  0  0  0  0  0  0  0  0  0
   20.6223    4.2895    0.0000 C   0  0  0  0  0  0  0  0  0  0  0  0
   19.9085    4.7087    0.0000 O   0  0  0  0  0  0  0  0  0  0  0  0
   19.1933    4.2886    0.0000 C   0  0  0  0  0  0  0  0  0  0  0  0
   19.1921    3.4593    0.0000 C   0  0  0  0  0  0  0  0  0  0  0  0
   21.3390    0.5792    0.0000 N   0  0  0  0  0  0  0  0  0  0  0  0
   19.4723    4.0670    0.0000 C   0  0  0  0  0  0  0  0  0  0  0  0
   20.2849    4.0711    0.0000 C   0  0  0  0  0  0  0  0  0  0  0  0
   16.3376   -0.6582    0.0000 N   0  0  0  0  0  0  0  0  0  0  0  0
   15.6228   -0.2460    0.0000 C   0  0  0  0  0  0  0  0  0  0  0  0
   14.9085   -0.6590    0.0000 N   0  0  0  0  0  0  0  0  0  0  0  0
   15.6223    0.5790    0.0000 O   0  0  0  0  0  0  0  0  0  0  0  0
   14.1937   -0.2468    0.0000 C   0  0  0  0  0  0  0  0  0  0  0  0
   14.1970    0.5784    0.0000 C   0  0  0  0  0  0  0  0  0  0  0  0
   13.4832    0.9905    0.0000 C   0  0  0  0  0  0  0  0  0  0  0  0
   12.7679    0.5775    0.0000 C   0  0  0  0  0  0  0  0  0  0  0  0
   12.7710   -0.2518    0.0000 C   0  0  0  0  0  0  0  0  0  0  0  0
   13.4855   -0.6602    0.0000 C   0  0  0  0  0  0  0  0  0  0  0  0
   12.0497    0.9900    0.0000 N   0  0  0  0  0  0  0  0  0  0  0  0
   12.0502    1.8160    0.0000 C   0  0  0  0  0  0  0  0  0  0  0  0
   11.3390    2.2272    0.0000 C   0  0  0  0  0  0  0  0  0  0  0  0
   10.6228    1.8168    0.0000 N   0  0  0  0  0  0  0  0  0  0  0  0
   10.6224    0.9908    0.0000 C   0  0  0  0  0  0  0  0  0  0  0  0
   11.3382    0.5751    0.0000 C   0  0  0  0  0  0  0  0  0  0  0  0
    9.9091    2.2307    0.0000 C   0  0  0  0  0  0  0  0  0  0  0  0
   22.0531    0.9926    0.0000 C   0  0  0  0  0  0  0  0  0  0  0  0
   22.7680    0.5807    0.0000 C   0  0  0  0  0  0  0  0  0  0  0  0
   22.0522    1.8176    0.0000 C   0  0  0  0  0  0  0  0  0  0  0  0
  9 10  2  0  0  0  0
 18 20  1  0  0  0  0
  2  3  1  0  0  0  0
 20 21  1  0  0  0  0
 21 14  1  0  0  0  0
 10 11  1  0  0  0  0
 10 22  1  0  0  0  0
  5  6  2  0  0  0  0
 22 23  1  0  0  0  0
 11 12  2  0  0  0  0
 23 24  1  0  0  0  0
 12  7  1  0  0  0  0
 23 25  2  0  0  0  0
  2  7  1  0  0  0  0
 24 26  1  0  0  0  0
 13 14  1  0  0  0  0
 26 27  2  0  0  0  0
  6  1  1  0  0  0  0
 27 28  1  0  0  0  0
  1  2  2  0  0  0  0
 28 29  2  0  0  0  0
  3  4  2  0  0  0  0
 29 30  1  0  0  0  0
  7  8  2  0  0  0  0
 30 31  2  0  0  0  0
 31 26  1  0  0  0  0
 32 33  1  0  0  0  0
  8  9  1  0  0  0  0
 13 18  1  0  0  0  0
 14 15  1  0  0  0  0
 15 16  1  0  0  0  0
 16 17  1  0  0  0  0
 32 37  1  0  0  0  0
 33 34  1  0  0  0  0
 34 35  1  0  0  0  0
 35 36  1  0  0  0  0
 36 37  1  0  0  0  0
 29 32  1  0  0  0  0
 17 18  1  0  0  0  0
 35 38  1  0  0  0  0
  6 13  1  0  0  0  0
 19 39  1  0  0  0  0
  4  5  1  0  0  0  0
 39 40  1  0  0  0  0
  4 19  1  0  0  0  0
 39 41  1  0  0  0  0
M  END
>  <Mol Weight>
557.6898

>  <Formula>
C30H39N9O2

>  <chembl_id>
CHEMBL1091345

$$$$

  Mrv0541 06201412482D          

 48 52  0  0  0  0            999 V2000
    7.9667   -1.7875    0.0000 C   0  0  2  0  0  0  0  0  0  0  0  0
    8.7542   -1.5458    0.0000 C   0  0  0  0  0  0  0  0  0  0  0  0
    9.2292   -2.2208    0.0000 C   0  0  0  0  0  0  0  0  0  0  0  0
    7.9500   -2.6167    0.0000 C   0  0  2  0  0  0  0  0  0  0  0  0
    8.7333   -2.8833    0.0000 C   0  0  0  0  0  0  0  0  0  0  0  0
    2.2542   -2.5958    0.0000 C   0  0  1  0  0  0  0  0  0  0  0  0
    2.9625   -3.0083    0.0000 O   0  0  0  0  0  0  0  0  0  0  0  0
    2.9542   -3.8333    0.0000 C   0  0  2  0  0  0  0  0  0  0  0  0
    7.2333   -3.0208    0.0000 C   0  0  1  0  0  0  0  0  0  0  0  0
    2.2458   -4.2458    0.0000 C   0  0  1  0  0  0  0  0  0  0  0  0
    1.5375   -3.0000    0.0000 C   0  0  2  0  0  0  0  0  0  0  0  0
    5.8083   -3.0125    0.0000 C   0  0  2  0  0  0  0  0  0  0  0  0
    1.5292   -3.8250    0.0000 C   0  0  2  0  0  0  0  0  0  0  0  0
    6.5208   -2.6000    0.0000 C   0  0  1  0  0  0  0  0  0  0  0  0
    9.1500   -0.8208    0.0000 C   0  0  1  0  0  0  0  0  0  0  0  0
    2.2625   -1.7708    0.0000 C   0  0  0  0  0  0  0  0  0  0  0  0
    5.8042   -3.8375    0.0000 C   0  0  2  0  0  0  0  0  0  0  0  0
    7.2542   -1.3667    0.0000 C   0  0  0  0  0  0  0  0  0  0  0  0
    6.5292   -1.7708    0.0000 C   0  0  0  0  0  0  0  0  0  0  0  0
    3.6708   -4.2500    0.0000 O   0  0  0  0  0  0  0  0  0  0  0  0
    7.2333   -3.8417    0.0000 C   0  0  0  0  0  0  0  0  0  0  0  0
    5.0958   -2.5917    0.0000 C   0  0  0  0  0  0  0  0  0  0  0  0
    8.9750   -3.6708    0.0000 O   0  0  0  0  0  0  0  0  0  0  0  0
    9.9750   -0.8042    0.0000 C   0  0  0  0  0  0  0  0  0  0  0  0
   10.3708   -0.0792    0.0000 C   0  0  0  0  0  0  0  0  0  0  0  0
    5.1000   -4.2375    0.0000 C   0  0  0  0  0  0  0  0  0  0  0  0
    6.5167   -4.2500    0.0000 C   0  0  0  0  0  0  0  0  0  0  0  0
    4.3875   -3.8375    0.0000 C   0  0  2  0  0  0  0  0  0  0  0  0
    2.9792   -1.3625    0.0000 O   0  0  0  0  0  0  0  0  0  0  0  0
   10.0542   -2.2375    0.0000 O   0  0  0  0  0  0  0  0  0  0  0  0
   11.1958   -0.0583    0.0000 O   0  0  0  0  0  0  0  0  0  0  0  0
    2.2417   -5.0708    0.0000 O   0  0  0  0  0  0  0  0  0  0  0  0
    0.8250   -2.5833    0.0000 O   0  0  0  0  0  0  0  0  0  0  0  0
    0.8125   -4.2333    0.0000 O   0  0  0  0  0  0  0  0  0  0  0  0
    7.9625   -0.9625    0.0000 C   0  0  0  0  0  0  0  0  0  0  0  0
    4.3875   -3.0125    0.0000 C   0  0  0  0  0  0  0  0  0  0  0  0
    1.5500   -1.3500    0.0000 O   0  0  0  0  0  0  0  0  0  0  0  0
    9.9417    0.6250    0.0000 C   0  0  0  0  0  0  0  0  0  0  0  0
    5.8042   -2.1875    0.0000 C   0  0  0  0  0  0  0  0  0  0  0  0
    8.7208   -0.1167    0.0000 C   0  0  0  0  0  0  0  0  0  0  0  0
   10.3375    1.3500    0.0000 C   0  0  0  0  0  0  0  0  0  0  0  0
    9.9083    2.0542    0.0000 C   0  0  0  0  0  0  0  0  0  0  0  0
   11.1625    1.3667    0.0000 C   0  0  0  0  0  0  0  0  0  0  0  0
    7.9417   -3.4417    0.0000 H   0  0  0  0  0  0  0  0  0  0  0  0
    6.5167   -3.4250    0.0000 H   0  0  0  0  0  0  0  0  0  0  0  0
    7.2292   -2.1917    0.0000 H   0  0  0  0  0  0  0  0  0  0  0  0
    2.9583   -4.6583    0.0000 H   0  0  0  0  0  0  0  0  0  0  0  0
    5.8000   -4.6542    0.0000 H   0  0  0  0  0  0  0  0  0  0  0  0
  2  1  1  0  0  0  0
  3  2  2  0  0  0  0
  4  1  1  0  0  0  0
  5  4  1  0  0  0  0
  6  7  1  0  0  0  0
  7  8  1  0  0  0  0
  8 20  1  0  0  0  0
  9  4  1  0  0  0  0
 10  8  1  0  0  0  0
 11 13  1  0  0  0  0
 12 14  1  0  0  0  0
 13 10  1  0  0  0  0
 14  9  1  0  0  0  0
 15  2  1  0  0  0  0
  6 16  1  1  0  0  0
 17 12  1  0  0  0  0
 18  1  1  0  0  0  0
 19 18  1  0  0  0  0
 28 20  1  1  0  0  0
 21  9  1  0  0  0  0
 22 12  1  0  0  0  0
 23  5  2  0  0  0  0
 24 15  1  0  0  0  0
 25 24  1  0  0  0  0
 26 17  1  0  0  0  0
 27 21  1  0  0  0  0
 28 26  1  0  0  0  0
 29 16  2  0  0  0  0
 30  3  1  0  0  0  0
 31 25  2  0  0  0  0
 10 32  1  6  0  0  0
 11 33  1  6  0  0  0
 13 34  1  1  0  0  0
  1 35  1  1  0  0  0
 36 22  1  0  0  0  0
 37 16  1  0  0  0  0
 38 25  1  0  0  0  0
 12 39  1  1  0  0  0
 15 40  1  6  0  0  0
 41 38  1  0  0  0  0
 42 41  1  0  0  0  0
 43 41  1  0  0  0  0
  4 44  1  1  0  0  0
 14 45  1  6  0  0  0
  9 46  1  1  0  0  0
  8 47  1  6  0  0  0
 17 48  1  6  0  0  0
  3  5  1  0  0  0  0
 19 14  1  0  0  0  0
 27 17  1  0  0  0  0
 28 36  1  0  0  0  0
 11  6  1  0  0  0  0
M  END
>  <Mol Weight>
606.7441

>  <Formula>
C33H50O10

>  <chembl_id>
CHEMBL1214515

$$$$

  Mrv0541 06201412482D          

 42 42  0  0  0  0            999 V2000
   -3.7567    4.3577    0.0000 C   0  0  2  0  0  0  0  0  0  0  0  0
   -4.4712    4.7702    0.0000 O   0  0  0  0  0  0  0  0  0  0  0  0
   -5.1857    4.3577    0.0000 C   0  0  1  0  0  0  0  0  0  0  0  0
   -5.1857    3.5327    0.0000 C   0  0  1  0  0  0  0  0  0  0  0  0
   -4.4712    3.1202    0.0000 C   0  0  1  0  0  0  0  0  0  0  0  0
   -3.7568    3.5327    0.0000 C   0  0  1  0  0  0  0  0  0  0  0  0
   -3.0423    4.7702    0.0000 C   0  0  0  0  0  0  0  0  0  0  0  0
   -4.4712    2.2952    0.0000 O   0  0  0  0  0  0  0  0  0  0  0  0
   -5.9002    3.1202    0.0000 O   0  0  0  0  0  0  0  0  0  0  0  0
   -5.5982    5.0722    0.0000 O   0  0  0  0  0  0  0  0  0  0  0  0
   -5.9826    4.1442    0.0000 C   0  0  0  0  0  0  0  0  0  0  0  0
   -3.0423    3.1202    0.0000 O   0  0  0  0  0  0  0  0  0  0  0  0
   -6.4232    5.0722    0.0000 C   0  0  0  0  0  0  0  0  0  0  0  0
   -7.1377    5.4847    0.0000 C   0  0  0  0  0  0  0  0  0  0  0  0
   -7.8521    5.0722    0.0000 C   0  0  0  0  0  0  0  0  0  0  0  0
   -8.5666    5.4847    0.0000 C   0  0  0  0  0  0  0  0  0  0  0  0
   -9.2811    5.0722    0.0000 C   0  0  0  0  0  0  0  0  0  0  0  0
  -15.3785    5.1708    0.0000 N   0  0  0  0  0  0  0  0  0  0  0  0
  -16.0930    5.5833    0.0000 C   0  0  0  0  0  0  0  0  0  0  0  0
  -16.0930    6.4083    0.0000 C   0  0  1  0  0  0  0  0  0  0  0  0
  -16.8075    5.1708    0.0000 O   0  0  0  0  0  0  0  0  0  0  0  0
  -16.8075    6.8208    0.0000 N   0  0  0  0  0  0  0  0  0  0  0  0
  -15.3785    6.8208    0.0000 C   0  0  0  0  0  0  0  0  0  0  0  0
  -14.6641    6.4083    0.0000 C   0  0  0  0  0  0  0  0  0  0  0  0
  -13.9496    6.8208    0.0000 C   0  0  0  0  0  0  0  0  0  0  0  0
  -13.2351    6.4083    0.0000 N   0  0  0  0  0  0  0  0  0  0  0  0
  -13.9496    7.6458    0.0000 O   0  0  0  0  0  0  0  0  0  0  0  0
  -17.5219    6.4083    0.0000 C   0  0  0  0  0  0  0  0  0  0  0  0
  -17.5219    5.5833    0.0000 O   0  0  0  0  0  0  0  0  0  0  0  0
  -18.2364    6.8208    0.0000 C   0  0  2  0  0  0  0  0  0  0  0  0
  -18.9509    6.4083    0.0000 N   0  0  0  0  0  0  0  0  0  0  0  0
  -18.2364    7.6458    0.0000 C   0  0  0  0  0  0  0  0  0  0  0  0
   -6.5660    3.5608    0.0000 C   0  0  0  0  0  0  0  0  0  0  0  0
   -6.5660    4.7275    0.0000 O   0  0  0  0  0  0  0  0  0  0  0  0
   -2.3278    4.3577    0.0000 O   0  0  0  0  0  0  0  0  0  0  0  0
   -9.9956    5.4847    0.0000 C   0  0  0  0  0  0  0  0  0  0  0  0
  -10.7100    5.0722    0.0000 C   0  0  0  0  0  0  0  0  0  0  0  0
  -11.4245    5.4847    0.0000 C   0  0  0  0  0  0  0  0  0  0  0  0
  -12.1390    5.0722    0.0000 C   0  0  0  0  0  0  0  0  0  0  0  0
  -12.8534    5.4847    0.0000 C   0  0  0  0  0  0  0  0  0  0  0  0
  -13.5679    5.0722    0.0000 C   0  0  0  0  0  0  0  0  0  0  0  0
  -14.2824    5.4847    0.0000 C   0  0  0  0  0  0  0  0  0  0  0  0
  1  2  1  0  0  0  0
  6  1  1  0  0  0  0
  2  3  1  0  0  0  0
  3  4  1  0  0  0  0
  4  5  1  0  0  0  0
  5  6  1  0  0  0  0
  1  7  1  1  0  0  0
  5  8  1  1  0  0  0
  4  9  1  1  0  0  0
  3 10  1  1  0  0  0
  3 11  1  6  0  0  0
  6 12  1  6  0  0  0
 10 13  1  0  0  0  0
 13 14  1  0  0  0  0
 14 15  1  0  0  0  0
 15 16  1  0  0  0  0
 16 17  1  0  0  0  0
 18 19  1  0  0  0  0
 19 20  1  0  0  0  0
 19 21  2  0  0  0  0
 20 22  1  0  0  0  0
 20 23  1  1  0  0  0
 23 24  1  0  0  0  0
 24 25  1  0  0  0  0
 25 26  1  0  0  0  0
 25 27  2  0  0  0  0
 22 28  1  0  0  0  0
 28 29  2  0  0  0  0
 28 30  1  0  0  0  0
 30 31  1  0  0  0  0
 30 32  1  6  0  0  0
 11 33  1  0  0  0  0
 11 34  2  0  0  0  0
  7 35  1  0  0  0  0
 17 36  1  0  0  0  0
 36 37  1  0  0  0  0
 37 38  1  0  0  0  0
 38 39  1  0  0  0  0
 39 40  1  0  0  0  0
 40 41  1  0  0  0  0
 41 42  1  0  0  0  0
 18 42  1  0  0  0  0
M  END
>  <Mol Weight>
604.7333

>  <Formula>
C28H52N4O10

>  <chembl_id>
CHEMBL1159612

$$$$

  Mrv0541 06201412482D          

 43 49  0  0  0  0            999 V2000
   15.9263    1.0849    0.0000 C   0  0  1  0  0  0  0  0  0  0  0  0
   14.8538    1.8821    0.0000 N   0  0  0  0  0  0  0  0  0  0  0  0
   15.1005    1.0940    0.0000 C   0  0  0  0  0  0  0  0  0  0  0  0
   15.9215    0.2590    0.0000 C   0  0  1  0  0  0  0  0  0  0  0  0
   16.7076   -0.0012    0.0000 C   0  0  1  0  0  0  0  0  0  0  0  0
   14.4948    0.2534    0.0000 N   0  0  0  0  0  0  0  0  0  0  0  0
   14.4981   -0.5723    0.0000 C   0  0  0  0  0  0  0  0  0  0  0  0
   15.2125   -0.9782    0.0000 C   0  0  0  0  0  0  0  0  0  0  0  0
   15.9235   -0.5666    0.0000 C   0  0  0  0  0  0  0  0  0  0  0  0
   15.2058    0.6733    0.0000 C   0  0  0  0  0  0  0  0  0  0  0  0
   15.2158   -1.8040    0.0000 C   0  0  0  0  0  0  0  0  0  0  0  0
   14.5023   -2.2197    0.0000 C   0  0  0  0  0  0  0  0  0  0  0  0
   13.7847   -1.8089    0.0000 C   0  0  0  0  0  0  0  0  0  0  0  0
   13.0718   -2.2240    0.0000 C   0  0  0  0  0  0  0  0  0  0  0  0
   13.0747   -3.0507    0.0000 C   0  0  0  0  0  0  0  0  0  0  0  0
   13.7966   -3.4604    0.0000 C   0  0  0  0  0  0  0  0  0  0  0  0
   14.5065   -3.0431    0.0000 C   0  0  0  0  0  0  0  0  0  0  0  0
   13.7767    0.6613    0.0000 C   0  0  0  0  0  0  0  0  0  0  0  0
   16.7161    1.3343    0.0000 N   0  0  0  0  0  0  0  0  0  0  0  0
   17.1951    0.6632    0.0000 C   0  0  1  0  0  0  0  0  0  0  0  0
   17.9814    0.9115    0.0000 C   0  0  0  0  0  0  0  0  0  0  0  0
   17.9883    1.7360    0.0000 S   0  0  0  0  0  0  0  0  0  0  0  0
   17.2063    1.9972    0.0000 C   0  0  0  0  0  0  0  0  0  0  0  0
   15.5273    2.3602    0.0000 C   0  0  0  0  0  0  0  0  0  0  0  0
   16.1873    1.8663    0.0000 C   0  0  0  0  0  0  0  0  0  0  0  0
   16.9429    2.1911    0.0000 C   0  0  0  0  0  0  0  0  0  0  0  0
   17.0397    3.0094    0.0000 C   0  0  0  0  0  0  0  0  0  0  0  0
   16.3748    3.5021    0.0000 C   0  0  0  0  0  0  0  0  0  0  0  0
   15.6218    3.1746    0.0000 C   0  0  0  0  0  0  0  0  0  0  0  0
   14.2717    1.1010    0.0000 O   0  0  0  0  0  0  0  0  0  0  0  0
   17.5998   -0.0458    0.0000 H   0  0  0  0  0  0  0  0  0  0  0  0
   17.1130   -0.7207    0.0000 C   0  0  0  0  0  0  0  0  0  0  0  0
   16.6900   -1.4265    0.0000 C   0  0  0  0  0  0  0  0  0  0  0  0
   17.0947   -2.1454    0.0000 C   0  0  0  0  0  0  0  0  0  0  0  0
   17.9213   -2.1545    0.0000 C   0  0  0  0  0  0  0  0  0  0  0  0
   18.3415   -1.4388    0.0000 C   0  0  0  0  0  0  0  0  0  0  0  0
   17.9344   -0.7228    0.0000 C   0  0  0  0  0  0  0  0  0  0  0  0
   16.6394   -0.9782    0.0000 O   0  0  0  0  0  0  0  0  0  0  0  0
   17.8172    3.2831    0.0000 N   0  3  0  0  0  0  0  0  0  0  0  0
   17.8138    4.1156    0.0000 O   0  0  0  0  0  0  0  0  0  0  0  0
   18.5340    2.8732    0.0000 O   0  5  0  0  0  0  0  0  0  0  0  0
   12.3618   -3.4674    0.0000 F   0  0  0  0  0  0  0  0  0  0  0  0
   18.3276   -2.8734    0.0000 F   0  0  0  0  0  0  0  0  0  0  0  0
  4  5  1  0  0  0  0
  1 25  1  1  0  0  0
  6 10  1  0  0  0  0
  7  8  1  0  0  0  0
  8  9  1  0  0  0  0
 20 21  1  0  0  0  0
 21 22  1  0  0  0  0
 22 23  1  0  0  0  0
 23 19  1  0  0  0  0
  4  9  1  1  0  0  0
  4 10  1  0  0  0  0
 24 25  2  0  0  0  0
 25 26  1  0  0  0  0
  8 11  2  0  0  0  0
 26 27  2  0  0  0  0
  5 20  1  0  0  0  0
 27 28  1  0  0  0  0
 11 12  1  0  0  0  0
 28 29  2  0  0  0  0
 29 24  1  0  0  0  0
 19  1  1  0  0  0  0
  3 30  2  0  0  0  0
 12 13  2  0  0  0  0
 20 31  1  6  0  0  0
  1  4  1  0  0  0  0
  5 32  1  1  0  0  0
 13 14  1  0  0  0  0
 32 33  2  0  0  0  0
  6  7  1  0  0  0  0
 33 34  1  0  0  0  0
 14 15  2  0  0  0  0
 34 35  2  0  0  0  0
 24  2  1  0  0  0  0
 35 36  1  0  0  0  0
 15 16  1  0  0  0  0
 36 37  2  0  0  0  0
 37 32  1  0  0  0  0
  2  3  1  0  0  0  0
  9 38  2  0  0  0  0
 16 17  2  0  0  0  0
 17 12  1  0  0  0  0
  1  3  1  0  0  0  0
 39 40  2  0  0  0  0
 39 41  1  0  0  0  0
 27 39  1  0  0  0  0
  6 18  1  0  0  0  0
 15 42  1  0  0  0  0
 19 20  1  0  0  0  0
 35 43  1  0  0  0  0
M  CHG  2  39   1  41  -1
M  END
>  <Mol Weight>
588.624

>  <Formula>
C31H26F2N4O4S

>  <chembl_id>
CHEMBL610479

$$$$

  Mrv0541 06201412482D          

 41 46  0  0  0  0            999 V2000
    2.2355   -3.8187    0.0000 C   0  0  0  0  0  0  0  0  0  0  0  0
    1.5210   -3.4062    0.0000 C   0  0  0  0  0  0  0  0  0  0  0  0
    1.5210   -2.5812    0.0000 C   0  0  0  0  0  0  0  0  0  0  0  0
    2.9500   -3.4062    0.0000 C   0  0  0  0  0  0  0  0  0  0  0  0
    2.9500   -2.5812    0.0000 C   0  0  0  0  0  0  0  0  0  0  0  0
    2.2355   -2.1687    0.0000 C   0  0  0  0  0  0  0  0  0  0  0  0
    2.4070   -1.3617    0.0000 C   0  0  0  0  0  0  0  0  0  0  0  0
    3.2275   -1.2754    0.0000 N   0  0  0  0  0  0  0  0  0  0  0  0
    3.5631   -2.0291    0.0000 C   0  0  0  0  0  0  0  0  0  0  0  0
    1.8550   -0.7486    0.0000 O   0  0  0  0  0  0  0  0  0  0  0  0
    4.3700   -2.2006    0.0000 O   0  0  0  0  0  0  0  0  0  0  0  0
    2.2355   -4.6437    0.0000 C   0  0  0  0  0  0  0  0  0  0  0  0
    1.5210   -5.0562    0.0000 O   0  0  0  0  0  0  0  0  0  0  0  0
    2.9500   -5.0562    0.0000 O   0  0  0  0  0  0  0  0  0  0  0  0
    3.6400   -0.5610    0.0000 C   0  0  0  0  0  0  0  0  0  0  0  0
    4.4650   -0.5610    0.0000 C   0  0  0  0  0  0  0  0  0  0  0  0
    4.8775    0.1535    0.0000 C   0  0  0  0  0  0  0  0  0  0  0  0
    4.4650    0.8680    0.0000 C   0  0  0  0  0  0  0  0  0  0  0  0
    3.6400    0.8680    0.0000 C   0  0  0  0  0  0  0  0  0  0  0  0
    3.2275    0.1535    0.0000 C   0  0  0  0  0  0  0  0  0  0  0  0
    5.7025    0.1535    0.0000 C   0  0  0  0  0  0  0  0  0  0  0  0
    6.1874    0.8209    0.0000 N   0  0  0  0  0  0  0  0  0  0  0  0
    6.1874   -0.5139    0.0000 O   0  0  0  0  0  0  0  0  0  0  0  0
    6.9720   -0.2590    0.0000 C   0  0  0  0  0  0  0  0  0  0  0  0
    6.9720    0.5660    0.0000 C   0  0  0  0  0  0  0  0  0  0  0  0
    7.6865    0.9785    0.0000 C   0  0  0  0  0  0  0  0  0  0  0  0
    8.4010    0.5660    0.0000 C   0  0  0  0  0  0  0  0  0  0  0  0
    8.4010   -0.2590    0.0000 C   0  0  0  0  0  0  0  0  0  0  0  0
    7.6865   -0.6715    0.0000 C   0  0  0  0  0  0  0  0  0  0  0  0
    9.1155    0.9785    0.0000 C   0  0  0  0  0  0  0  0  0  0  0  0
    9.1155    1.8035    0.0000 C   0  0  0  0  0  0  0  0  0  0  0  0
    9.8299    2.2160    0.0000 C   0  0  0  0  0  0  0  0  0  0  0  0
    9.8299    0.5660    0.0000 C   0  0  0  0  0  0  0  0  0  0  0  0
   10.5444    0.9785    0.0000 C   0  0  0  0  0  0  0  0  0  0  0  0
   10.5444    1.8035    0.0000 C   0  0  0  0  0  0  0  0  0  0  0  0
    4.8775    1.5824    0.0000 N   0  0  0  0  0  0  0  0  0  0  0  0
    4.4650    2.2969    0.0000 C   0  0  0  0  0  0  0  0  0  0  0  0
    3.6400    2.2969    0.0000 C   0  0  0  0  0  0  0  0  0  0  0  0
    3.2275    3.0114    0.0000 C   0  0  0  0  0  0  0  0  0  0  0  0
   11.2589    0.5660    0.0000 Cl  0  0  0  0  0  0  0  0  0  0  0  0
   11.2589    2.2160    0.0000 F   0  0  0  0  0  0  0  0  0  0  0  0
 19 20  2  0  0  0  0
 20 15  1  0  0  0  0
 21 22  2  0  0  0  0
  4  1  1  0  0  0  0
  7 10  2  0  0  0  0
  5  6  1  0  0  0  0
 22 25  1  0  0  0  0
 24 23  1  0  0  0  0
 23 21  1  0  0  0  0
 17 21  1  0  0  0  0
  9 11  2  0  0  0  0
 24 25  2  0  0  0  0
  1 12  1  0  0  0  0
 25 26  1  0  0  0  0
  2  3  1  0  0  0  0
 26 27  2  0  0  0  0
 12 13  2  0  0  0  0
 27 28  1  0  0  0  0
  3  6  2  0  0  0  0
 28 29  2  0  0  0  0
 29 24  1  0  0  0  0
 12 14  1  0  0  0  0
  1  2  2  0  0  0  0
 30 31  2  0  0  0  0
  8 15  1  0  0  0  0
 31 32  1  0  0  0  0
 32 35  2  0  0  0  0
  5  4  2  0  0  0  0
 34 33  2  0  0  0  0
 33 30  1  0  0  0  0
 27 30  1  0  0  0  0
 34 35  1  0  0  0  0
 15 16  2  0  0  0  0
  6  7  1  0  0  0  0
 16 17  1  0  0  0  0
 18 36  1  0  0  0  0
  7  8  1  0  0  0  0
 36 37  1  0  0  0  0
 17 18  2  0  0  0  0
 37 38  1  0  0  0  0
  8  9  1  0  0  0  0
 38 39  1  0  0  0  0
 18 19  1  0  0  0  0
 34 40  1  0  0  0  0
  9  5  1  0  0  0  0
 35 41  1  0  0  0  0
M  END
>  <Mol Weight>
569.967

>  <Formula>
C31H21ClFN3O5

>  <chembl_id>
CHEMBL503289

$$$$

  Mrv0541 06201412482D          

 47 54  0  0  0  0            999 V2000
   -1.7132    1.5338    0.0000 C   0  0  0  0  0  0  0  0  0  0  0  0
   -2.1403   -0.2747    0.0000 C   0  0  1  0  0  0  0  0  0  0  0  0
   -1.3112   -0.2815    0.0000 C   0  0  0  0  0  0  0  0  0  0  0  0
   -0.7871    0.3563    0.0000 C   0  0  2  0  0  0  0  0  0  0  0  0
   -0.9623    1.1704    0.0000 C   0  0  2  0  0  0  0  0  0  0  0  0
   -0.5160    1.8617    0.0000 C   0  0  0  0  0  0  0  0  0  0  0  0
   -0.0917   -0.0902    0.0000 C   0  0  0  0  0  0  0  0  0  0  0  0
    0.2980    2.0327    0.0000 C   0  0  0  0  0  0  0  0  0  0  0  0
    0.9893    1.5908    0.0000 C   0  0  2  0  0  0  0  0  0  0  0  0
    2.3174    1.4598    0.0000 C   0  0  1  0  0  0  0  0  0  0  0  0
    1.7003    2.0036    0.0000 C   0  0  0  0  0  0  0  0  0  0  0  0
    1.1626    0.7843    0.0000 C   0  0  1  0  0  0  0  0  0  0  0  0
    0.7142    0.0875    0.0000 C   0  0  1  0  0  0  0  0  0  0  0  0
    1.0872   -0.6444    0.0000 O   0  0  0  0  0  0  0  0  0  0  0  0
    1.9885    0.7446    0.0000 C   0  0  1  0  0  0  0  0  0  0  0  0
    2.3654    0.0019    0.0000 C   0  0  2  0  0  0  0  0  0  0  0  0
    1.9157   -0.6874    0.0000 C   0  0  1  0  0  0  0  0  0  0  0  0
    2.4424   -1.3339    0.0000 C   0  0  1  0  0  0  0  0  0  0  0  0
    3.2112   -1.0385    0.0000 C   0  0  0  0  0  0  0  0  0  0  0  0
    3.1848   -0.2519    0.0000 O   0  0  0  0  0  0  0  0  0  0  0  0
    3.8976   -1.4798    0.0000 O   0  0  0  0  0  0  0  0  0  0  0  0
    2.2264   -2.1301    0.0000 C   0  0  0  0  0  0  0  0  0  0  0  0
    2.9429    0.5846    0.0000 H   0  0  0  0  0  0  0  0  0  0  0  0
    1.5042   -1.3973    0.0000 H   0  0  0  0  0  0  0  0  0  0  0  0
    2.6957    1.1566    0.0000 O   0  0  0  0  0  0  0  0  0  0  0  0
    1.7821    2.8261    0.0000 O   0  0  0  0  0  0  0  0  0  0  0  0
   -2.6466    0.3757    0.0000 C   0  0  1  0  0  0  0  0  0  0  0  0
   -3.7830    1.0845    0.0000 O   0  0  0  0  0  0  0  0  0  0  0  0
   -3.4698    0.3213    0.0000 C   0  0  0  0  0  0  0  0  0  0  0  0
   -3.1538    1.6117    0.0000 C   0  0  1  0  0  0  0  0  0  0  0  0
   -2.4572    1.1777    0.0000 C   0  0  1  0  0  0  0  0  0  0  0  0
   -1.8872    1.8452    0.0000 O   0  0  0  0  0  0  0  0  0  0  0  0
   -2.1383    2.4494    0.0000 C   0  0  0  0  0  0  0  0  0  0  0  0
   -2.9480    2.4543    0.0000 C   0  0  0  0  0  0  0  0  0  0  0  0
   -4.0569   -0.2594    0.0000 C   0  0  0  0  0  0  0  0  0  0  0  0
   -3.4782   -0.4985    0.0000 C   0  0  0  0  0  0  0  0  0  0  0  0
   -1.7006    3.1660    0.0000 O   0  0  0  0  0  0  0  0  0  0  0  0
   -3.9578    1.8298    0.0000 H   0  0  0  0  0  0  0  0  0  0  0  0
   -2.6604   -0.4415    0.0000 H   0  0  0  0  0  0  0  0  0  0  0  0
   -2.1397   -1.0931    0.0000 O   0  0  0  0  0  0  0  0  0  0  0  0
   -0.7933   -0.4644    0.0000 H   0  0  0  0  0  0  0  0  0  0  0  0
   -0.1748    0.9572    0.0000 O   0  0  0  0  0  0  0  0  0  0  0  0
    1.3778   -0.0110    0.0000 H   0  0  0  0  0  0  0  0  0  0  0  0
    0.9767    2.4177    0.0000 C   0  0  0  0  0  0  0  0  0  0  0  0
    2.8939    2.0485    0.0000 O   0  0  0  0  0  0  0  0  0  0  0  0
    2.3107    2.2865    0.0000 C   0  0  0  0  0  0  0  0  0  0  0  0
   -0.2396   -0.8987    0.0000 O   0  0  0  0  0  0  0  0  0  0  0  0
 31  1  1  0  0  0  0
  1  5  1  0  0  0  0
 27  2  1  0  0  0  0
  4  3  1  0  0  0  0
  2  3  1  0  0  0  0
  4  5  1  0  0  0  0
  5  6  1  0  0  0  0
  4  7  1  0  0  0  0
  7 13  1  0  0  0  0
  9  8  1  0  0  0  0
  8  6  1  0  0  0  0
  9 12  1  0  0  0  0
 15 10  1  0  0  0  0
 10 11  1  0  0  0  0
 11  9  1  0  0  0  0
 12 13  1  0  0  0  0
 12 15  1  0  0  0  0
 13 14  1  0  0  0  0
 14 17  1  0  0  0  0
 16 15  1  0  0  0  0
 16 17  1  0  0  0  0
 17 18  1  0  0  0  0
 18 19  1  0  0  0  0
 19 20  1  0  0  0  0
 20 16  1  0  0  0  0
 19 21  2  0  0  0  0
 18 22  1  1  0  0  0
 16 23  1  6  0  0  0
 17 24  1  6  0  0  0
 15 25  1  1  0  0  0
 11 26  2  0  0  0  0
 27 31  1  0  0  0  0
 30 28  1  0  0  0  0
 28 29  1  0  0  0  0
 29 27  1  0  0  0  0
 30 31  1  0  0  0  0
 31 32  1  6  0  0  0
 32 33  1  0  0  0  0
 33 34  1  0  0  0  0
 34 30  1  0  0  0  0
 29 35  1  0  0  0  0
 29 36  1  0  0  0  0
 33 37  2  0  0  0  0
 30 38  1  1  0  0  0
 27 39  1  6  0  0  0
  2 40  1  6  0  0  0
  4 41  1  1  0  0  0
  5 42  1  6  0  0  0
 13 42  1  6  0  0  0
 12 43  1  1  0  0  0
  9 44  1  1  0  0  0
 10 45  1  6  0  0  0
 10 46  1  0  0  0  0
  7 47  2  0  0  0  0
M  END
>  <Mol Weight>
576.5889

>  <Formula>
C29H36O12

>  <chembl_id>
CHEMBL1076668

$$$$

  Mrv0541 06201412482D          

 41 46  0  0  0  0            999 V2000
    6.1539   -0.4485    0.0000 N   0  0  0  0  0  0  0  0  0  0  0  0
    6.8703   -0.0352    0.0000 C   0  0  0  0  0  0  0  0  0  0  0  0
    6.8675    0.7953    0.0000 C   0  0  0  0  0  0  0  0  0  0  0  0
    6.1521    1.2045    0.0000 C   0  0  0  0  0  0  0  0  0  0  0  0
    5.4391   -0.0357    0.0000 C   0  0  2  0  0  0  0  0  0  0  0  0
    5.4387    0.7917    0.0000 C   0  0  1  0  0  0  0  0  0  0  0  0
    4.0089    0.7910    0.0000 C   0  0  0  0  0  0  0  0  0  0  0  0
    4.0093   -0.0364    0.0000 C   0  0  0  0  0  0  0  0  0  0  0  0
    4.7267   -0.4520    0.0000 C   0  0  0  0  0  0  0  0  0  0  0  0
    6.1500    2.0295    0.0000 O   0  0  0  0  0  0  0  0  0  0  0  0
    4.7208    1.1500    0.0000 C   0  0  0  0  0  0  0  0  0  0  0  0
    7.5855   -0.4466    0.0000 O   0  0  0  0  0  0  0  0  0  0  0  0
    7.5804    1.2105    0.0000 C   0  0  0  0  0  0  0  0  0  0  0  0
    8.2977    0.7962    0.0000 N   0  0  0  0  0  0  0  0  0  0  0  0
    8.2937    2.4452    0.0000 S   0  0  0  0  0  0  0  0  0  0  0  0
    7.5767    2.0318    0.0000 N   0  0  0  0  0  0  0  0  0  0  0  0
    7.8750    3.1625    0.0000 O   0  0  0  0  0  0  0  0  0  0  0  0
    8.7000    3.1625    0.0000 O   0  0  0  0  0  0  0  0  0  0  0  0
    9.0096    2.0332    0.0000 C   0  0  0  0  0  0  0  0  0  0  0  0
    9.0058    1.2102    0.0000 C   0  0  0  0  0  0  0  0  0  0  0  0
    9.7155    0.7971    0.0000 C   0  0  0  0  0  0  0  0  0  0  0  0
   10.4295    1.2060    0.0000 C   0  0  0  0  0  0  0  0  0  0  0  0
   10.4294    2.0322    0.0000 C   0  0  0  0  0  0  0  0  0  0  0  0
    9.7191    2.4415    0.0000 C   0  0  0  0  0  0  0  0  0  0  0  0
   11.1437    2.4450    0.0000 N   0  0  0  0  0  0  0  0  0  0  0  0
   11.8583    2.0329    0.0000 S   0  0  0  0  0  0  0  0  0  0  0  0
   12.5726    2.4457    0.0000 C   0  0  0  0  0  0  0  0  0  0  0  0
   11.4375    1.3208    0.0000 O   0  0  0  0  0  0  0  0  0  0  0  0
   12.2625    1.3208    0.0000 O   0  0  0  0  0  0  0  0  0  0  0  0
    6.1537   -1.2735    0.0000 C   0  0  0  0  0  0  0  0  0  0  0  0
    6.8681   -1.6862    0.0000 C   0  0  0  0  0  0  0  0  0  0  0  0
    6.8637   -2.5094    0.0000 C   0  0  0  0  0  0  0  0  0  0  0  0
    7.5772   -2.9220    0.0000 C   0  0  0  0  0  0  0  0  0  0  0  0
    8.2928   -2.5096    0.0000 C   0  0  0  0  0  0  0  0  0  0  0  0
    8.2903   -1.6804    0.0000 C   0  0  0  0  0  0  0  0  0  0  0  0
    7.5762   -1.2715    0.0000 C   0  0  0  0  0  0  0  0  0  0  0  0
    5.4333    1.6208    0.0000 H   0  0  0  0  0  0  0  0  0  0  0  0
    5.4333   -0.8583    0.0000 H   0  0  0  0  0  0  0  0  0  0  0  0
    6.1480   -2.9198    0.0000 F   0  0  0  0  0  0  0  0  0  0  0  0
    4.3083    0.2667    0.0000 C   0  0  0  0  0  0  0  0  0  0  0  0
    5.1333    0.2667    0.0000 C   0  0  0  0  0  0  0  0  0  0  0  0
  7  8  1  0  0  0  0
 19 20  2  0  0  0  0
  8  9  1  0  0  0  0
 20 21  1  0  0  0  0
  4  6  1  0  0  0  0
 21 22  2  0  0  0  0
  4 10  1  0  0  0  0
 22 23  1  0  0  0  0
  5  6  1  0  0  0  0
 23 24  2  0  0  0  0
 24 19  1  0  0  0  0
  1  2  1  0  0  0  0
 23 25  1  0  0  0  0
  2 12  2  0  0  0  0
 25 26  1  0  0  0  0
  5  1  1  0  0  0  0
 26 27  1  0  0  0  0
  3 13  1  0  0  0  0
 26 28  2  0  0  0  0
 13 14  1  0  0  0  0
 26 29  2  0  0  0  0
  2  3  1  0  0  0  0
  1 30  1  0  0  0  0
 30 31  1  0  0  0  0
  3  4  2  0  0  0  0
 31 32  2  0  0  0  0
 13 16  2  0  0  0  0
 32 33  1  0  0  0  0
 14 20  1  0  0  0  0
 33 34  2  0  0  0  0
 19 15  1  0  0  0  0
 34 35  1  0  0  0  0
 15 16  1  0  0  0  0
 35 36  2  0  0  0  0
 36 31  1  0  0  0  0
  5  9  1  0  0  0  0
  6 37  1  6  0  0  0
 15 17  2  0  0  0  0
  5 38  1  6  0  0  0
  6 11  1  0  0  0  0
 32 39  1  0  0  0  0
 15 18  2  0  0  0  0
  9 40  1  0  0  0  0
 11  7  1  0  0  0  0
 40 41  1  0  0  0  0
 41 11  1  0  0  0  0
M  END
>  <Mol Weight>
574.644

>  <Formula>
C26H27FN4O6S2

>  <chembl_id>
CHEMBL1076294

$$$$

  Mrv0541 06201412482D          

 33 33  0  0  0  0            999 V2000
    8.4014   -4.1025    0.0000 N   0  3  0  0  0  0  0  0  0  0  0  0
    5.9407   -5.5564    0.0000 C   0  0  0  0  0  0  0  0  0  0  0  0
    6.3460   -4.8378    0.0000 N   0  0  0  0  0  0  0  0  0  0  0  0
    7.5742   -4.1109    0.0000 C   0  0  0  0  0  0  0  0  0  0  0  0
    5.1135   -5.5689    0.0000 C   0  0  0  0  0  0  0  0  0  0  0  0
    7.1731   -4.8294    0.0000 C   0  0  0  0  0  0  0  0  0  0  0  0
    6.3585   -6.2708    0.0000 O   0  0  0  0  0  0  0  0  0  0  0  0
    7.8249   -6.2332    0.0000 I   0  5  0  0  0  0  0  0  0  0  0  0
    4.6916   -4.8545    0.0000 C   0  0  0  0  0  0  0  0  0  0  0  0
    4.7041   -6.2833    0.0000 C   0  0  0  0  0  0  0  0  0  0  0  0
    8.8233   -4.8169    0.0000 C   0  0  0  0  0  0  0  0  0  0  0  0
    8.8108   -3.3839    0.0000 C   0  0  0  0  0  0  0  0  0  0  0  0
    3.4508   -5.5814    0.0000 C   0  0  0  0  0  0  0  0  0  0  0  0
    3.8769   -6.2958    0.0000 C   0  0  0  0  0  0  0  0  0  0  0  0
    3.8519   -4.8628    0.0000 C   0  0  0  0  0  0  0  0  0  0  0  0
    2.6236   -5.5940    0.0000 O   0  0  0  0  0  0  0  0  0  0  0  0
    7.1564   -3.4007    0.0000 C   0  0  0  0  0  0  0  0  0  0  0  0
    2.1975   -4.8879    0.0000 C   0  0  0  0  0  0  0  0  0  0  0  0
    8.3888   -2.6738    0.0000 C   0  0  0  0  0  0  0  0  0  0  0  0
    1.3786   -4.8921    0.0000 C   0  0  0  0  0  0  0  0  0  0  0  0
    2.2602   -3.0748    0.0000 C   0  0  0  0  0  0  0  0  0  0  0  0
    1.4580   -3.1709    0.0000 C   0  0  0  0  0  0  0  0  0  0  0  0
    0.1629   -2.6111    0.0000 C   0  0  0  0  0  0  0  0  0  0  0  0
    0.9567   -4.1860    0.0000 C   0  0  0  0  0  0  0  0  0  0  0  0
    0.1295   -4.1903    0.0000 C   0  0  0  0  0  0  0  0  0  0  0  0
   -0.2966   -3.4842    0.0000 C   0  0  0  0  0  0  0  0  0  0  0  0
   -1.1238   -3.4967    0.0000 C   0  0  0  0  0  0  0  0  0  0  0  0
   -1.5499   -2.7866    0.0000 C   0  0  0  0  0  0  0  0  0  0  0  0
    0.9567   -2.5191    0.0000 C   0  0  0  0  0  0  0  0  0  0  0  0
   -1.1363   -2.0596    0.0000 C   0  0  0  0  0  0  0  0  0  0  0  0
   -0.3384   -1.9594    0.0000 C   0  0  0  0  0  0  0  0  0  0  0  0
    2.7615   -3.7265    0.0000 C   0  0  0  0  0  0  0  0  0  0  0  0
    7.5617   -2.6821    0.0000 C   0  0  0  0  0  0  0  0  0  0  0  0
  2  3  1  0  0  0  0
  3  6  1  0  0  0  0
  4  1  2  0  0  0  0
  5  2  1  0  0  0  0
  6  4  1  0  0  0  0
  7  2  2  0  0  0  0
  9  5  2  0  0  0  0
 10  5  1  0  0  0  0
 11  1  1  0  0  0  0
 12  1  1  0  0  0  0
 13 15  2  0  0  0  0
 14 10  2  0  0  0  0
 15  9  1  0  0  0  0
 16 13  1  0  0  0  0
 17  4  1  0  0  0  0
 18 16  1  0  0  0  0
 19 12  2  0  0  0  0
 20 18  1  0  0  0  0
 21 22  1  0  0  0  0
 22 29  1  0  0  0  0
 23 31  1  0  0  0  0
 24 20  1  0  0  0  0
 25 24  1  0  0  0  0
 26 25  1  0  0  0  0
 27 26  1  0  0  0  0
 28 27  1  0  0  0  0
 29 23  1  0  0  0  0
 30 28  1  0  0  0  0
 31 30  1  0  0  0  0
 32 21  1  0  0  0  0
 33 19  1  0  0  0  0
 17 33  2  0  0  0  0
 14 13  1  0  0  0  0
M  CHG  2   1   1   8  -1
M  END
>  <Mol Weight>
566.5577

>  <Formula>
C28H43IN2O2

>  <chembl_id>
CHEMBL154993

$$$$

  Mrv0541 06201412482D          

 42 45  0  0  0  0            999 V2000
    1.4850  -17.3483    0.0000 C   0  0  0  0  0  0  0  0  0  0  0  0
    2.1995  -16.9358    0.0000 N   0  0  0  0  0  0  0  0  0  0  0  0
    2.9140  -17.3483    0.0000 C   0  0  2  0  0  0  0  0  0  0  0  0
    3.6285  -16.9358    0.0000 C   0  0  0  0  0  0  0  0  0  0  0  0
    4.3430  -17.3483    0.0000 C   0  0  0  0  0  0  0  0  0  0  0  0
    3.6285  -16.1107    0.0000 O   0  0  0  0  0  0  0  0  0  0  0  0
    4.3430  -18.1733    0.0000 O   0  0  0  0  0  0  0  0  0  0  0  0
    5.0575  -16.9358    0.0000 N   0  0  0  0  0  0  0  0  0  0  0  0
    1.4850  -18.1733    0.0000 O   0  0  0  0  0  0  0  0  0  0  0  0
    2.9140  -18.1733    0.0000 C   0  0  0  0  0  0  0  0  0  0  0  0
    2.1995  -18.5858    0.0000 C   0  0  0  0  0  0  0  0  0  0  0  0
    2.1995  -19.4108    0.0000 C   0  0  0  0  0  0  0  0  0  0  0  0
    1.4850  -19.8233    0.0000 C   0  0  0  0  0  0  0  0  0  0  0  0
    0.7706  -16.9358    0.0000 O   0  0  0  0  0  0  0  0  0  0  0  0
    0.0567  -17.3482    0.0000 C   0  0  2  0  0  0  0  0  0  0  0  0
   -0.7324  -17.1109    0.0000 C   0  0  0  0  0  0  0  0  0  0  0  0
   -1.2063  -17.7862    0.0000 N   0  0  0  0  0  0  0  0  0  0  0  0
   -0.7104  -18.4456    0.0000 C   0  0  0  0  0  0  0  0  0  0  0  0
    0.0699  -18.1777    0.0000 C   0  0  0  0  0  0  0  0  0  0  0  0
    0.7791  -17.7563    0.0000 C   0  0  0  0  0  0  0  0  0  0  0  0
    0.4766  -18.8838    0.0000 C   0  0  0  0  0  0  0  0  0  0  0  0
    5.7719  -17.3483    0.0000 C   0  0  1  0  0  0  0  0  0  0  0  0
    6.4864  -16.9358    0.0000 C   0  0  0  0  0  0  0  0  0  0  0  0
    7.2001  -17.3519    0.0000 C   0  0  0  0  0  0  0  0  0  0  0  0
    7.9140  -16.9402    0.0000 C   0  0  0  0  0  0  0  0  0  0  0  0
    7.9146  -16.1143    0.0000 C   0  0  0  0  0  0  0  0  0  0  0  0
    7.1950  -15.7019    0.0000 C   0  0  0  0  0  0  0  0  0  0  0  0
    6.4840  -16.1160    0.0000 C   0  0  0  0  0  0  0  0  0  0  0  0
    5.7719  -18.1733    0.0000 C   0  0  0  0  0  0  0  0  0  0  0  0
   -2.0312  -17.7998    0.0000 C   0  0  0  0  0  0  0  0  0  0  0  0
   -2.4554  -17.0922    0.0000 O   0  0  0  0  0  0  0  0  0  0  0  0
   -2.4319  -18.5210    0.0000 O   0  0  0  0  0  0  0  0  0  0  0  0
   -3.2568  -18.5345    0.0000 C   0  0  0  0  0  0  0  0  0  0  0  0
   -3.6795  -17.8288    0.0000 C   0  0  0  0  0  0  0  0  0  0  0  0
   -4.4763  -19.2736    0.0000 C   0  0  0  0  0  0  0  0  0  0  0  0
   -3.6536  -19.2568    0.0000 C   0  0  0  0  0  0  0  0  0  0  0  0
   -4.9051  -18.5637    0.0000 C   0  0  0  0  0  0  0  0  0  0  0  0
   -4.5073  -17.8405    0.0000 C   0  0  0  0  0  0  0  0  0  0  0  0
   -4.9346  -17.1367    0.0000 C   0  0  0  0  0  0  0  0  0  0  0  0
   -5.7541  -17.1547    0.0000 C   0  0  0  0  0  0  0  0  0  0  0  0
   -6.1467  -17.8824    0.0000 C   0  0  0  0  0  0  0  0  0  0  0  0
   -5.7238  -18.5834    0.0000 C   0  0  0  0  0  0  0  0  0  0  0  0
 19 21  1  0  0  0  0
 10 11  1  0  0  0  0
  8 22  1  0  0  0  0
  4  6  2  0  0  0  0
 22 23  1  0  0  0  0
 11 12  1  0  0  0  0
 23 24  2  0  0  0  0
  1  2  1  0  0  0  0
 24 25  1  0  0  0  0
 12 13  1  0  0  0  0
 25 26  2  0  0  0  0
  5  7  2  0  0  0  0
 26 27  1  0  0  0  0
  1 14  1  0  0  0  0
 27 28  2  0  0  0  0
 28 23  1  0  0  0  0
  3  4  1  0  0  0  0
 22 29  1  1  0  0  0
 15 14  1  1  0  0  0
 17 30  1  0  0  0  0
 15 16  1  0  0  0  0
 30 31  2  0  0  0  0
  5  8  1  0  0  0  0
 30 32  1  0  0  0  0
 32 33  1  0  0  0  0
  1  9  2  0  0  0  0
 33 34  2  0  0  0  0
 34 38  1  0  0  0  0
  4  5  1  0  0  0  0
 37 35  1  0  0  0  0
 16 17  1  0  0  0  0
 35 36  2  0  0  0  0
 36 33  1  0  0  0  0
 17 18  1  0  0  0  0
 18 19  1  0  0  0  0
 37 38  2  0  0  0  0
 19 15  1  0  0  0  0
 38 39  1  0  0  0  0
  3 10  1  6  0  0  0
 39 40  2  0  0  0  0
 19 20  1  0  0  0  0
 40 41  1  0  0  0  0
  2  3  1  0  0  0  0
 41 42  2  0  0  0  0
 42 37  1  0  0  0  0
M  END
>  <Mol Weight>
573.6793

>  <Formula>
C33H39N3O6

>  <chembl_id>
CHEMBL1077002

$$$$

  Mrv0541 06201412482D          

 42 46  0  0  0  0            999 V2000
    9.9456   -4.7402    0.0000 N   0  0  0  0  0  0  0  0  0  0  0  0
   10.6620   -4.3269    0.0000 C   0  0  0  0  0  0  0  0  0  0  0  0
   10.6591   -3.4963    0.0000 N   0  0  0  0  0  0  0  0  0  0  0  0
    9.9438   -3.0872    0.0000 C   0  0  0  0  0  0  0  0  0  0  0  0
    9.2307   -4.3273    0.0000 C   0  0  0  0  0  0  0  0  0  0  0  0
    9.2274   -3.5030    0.0000 C   0  0  0  0  0  0  0  0  0  0  0  0
    8.4424   -3.2514    0.0000 N   0  0  0  0  0  0  0  0  0  0  0  0
    7.9605   -3.9203    0.0000 C   0  0  0  0  0  0  0  0  0  0  0  0
    8.4478   -4.5852    0.0000 N   0  0  0  0  0  0  0  0  0  0  0  0
    9.9411   -2.2622    0.0000 N   0  0  0  0  0  0  0  0  0  0  0  0
   11.3771   -4.7382    0.0000 N   0  0  0  0  0  0  0  0  0  0  0  0
   11.4652   -5.5561    0.0000 N   0  0  0  0  0  0  0  0  0  0  0  0
   12.2724   -5.7264    0.0000 N   0  0  0  0  0  0  0  0  0  0  0  0
   12.6838   -5.0112    0.0000 C   0  0  0  0  0  0  0  0  0  0  0  0
   12.1308   -4.3991    0.0000 C   0  0  0  0  0  0  0  0  0  0  0  0
    8.2042   -5.3733    0.0000 C   0  0  2  0  0  0  0  0  0  0  0  0
    7.4250   -5.6437    0.0000 O   0  0  0  0  0  0  0  0  0  0  0  0
    7.4369   -6.4686    0.0000 C   0  0  1  0  0  0  0  0  0  0  0  0
    8.2251   -6.7123    0.0000 C   0  0  2  0  0  0  0  0  0  0  0  0
    8.7003   -6.0379    0.0000 C   0  0  1  0  0  0  0  0  0  0  0  0
    8.4914   -7.4932    0.0000 O   0  0  0  0  0  0  0  0  0  0  0  0
    9.5252   -6.0266    0.0000 O   0  0  0  0  0  0  0  0  0  0  0  0
    6.7765   -6.9631    0.0000 C   0  0  0  0  0  0  0  0  0  0  0  0
    6.0181   -6.6384    0.0000 O   0  0  0  0  0  0  0  0  0  0  0  0
    5.3576   -7.1329    0.0000 S   0  0  0  0  0  0  0  0  0  0  0  0
    4.6375   -7.5375    0.0000 N   0  0  0  0  0  0  0  0  0  0  0  0
    5.8079   -7.8242    0.0000 O   0  0  0  0  0  0  0  0  0  0  0  0
    4.9084   -6.4409    0.0000 O   0  0  0  0  0  0  0  0  0  0  0  0
    3.9279   -7.1167    0.0000 C   0  0  0  0  0  0  0  0  0  0  0  0
    3.2087   -7.5208    0.0000 C   0  0  0  0  0  0  0  0  0  0  0  0
    3.9375   -6.2917    0.0000 O   0  0  0  0  0  0  0  0  0  0  0  0
    2.4997   -7.0968    0.0000 C   0  0  0  0  0  0  0  0  0  0  0  0
    1.7810   -7.5002    0.0000 C   0  0  0  0  0  0  0  0  0  0  0  0
    1.7709   -8.3261    0.0000 C   0  0  0  0  0  0  0  0  0  0  0  0
    2.4855   -8.7468    0.0000 C   0  0  0  0  0  0  0  0  0  0  0  0
    3.2013   -8.3409    0.0000 C   0  0  0  0  0  0  0  0  0  0  0  0
    2.5110   -6.2719    0.0000 O   0  0  0  0  0  0  0  0  0  0  0  0
   13.5042   -4.9236    0.0000 C   0  0  0  0  0  0  0  0  0  0  0  0
   13.9902   -5.5903    0.0000 O   0  0  0  0  0  0  0  0  0  0  0  0
   13.8385   -4.1694    0.0000 O   0  0  0  0  0  0  0  0  0  0  0  0
   13.6559   -6.3445    0.0000 C   0  0  0  0  0  0  0  0  0  0  0  0
   14.1419   -7.0111    0.0000 C   0  0  0  0  0  0  0  0  0  0  0  0
 16 17  1  0  0  0  0
  4  6  1  0  0  0  0
  5  6  2  0  0  0  0
 17 18  1  0  0  0  0
 18 19  1  0  0  0  0
 19 20  1  0  0  0  0
 20 16  1  0  0  0  0
 19 21  1  6  0  0  0
 20 22  1  6  0  0  0
 18 23  1  1  0  0  0
  6  7  1  0  0  0  0
 23 24  1  0  0  0  0
  7  8  2  0  0  0  0
 24 25  1  0  0  0  0
  8  9  1  0  0  0  0
 25 26  1  0  0  0  0
  9  5  1  0  0  0  0
 25 27  2  0  0  0  0
  5  1  1  0  0  0  0
 25 28  2  0  0  0  0
  4 10  1  0  0  0  0
 26 29  1  0  0  0  0
 29 30  1  0  0  0  0
  2 11  1  0  0  0  0
 29 31  2  0  0  0  0
 11 12  1  0  0  0  0
 30 32  2  0  0  0  0
  1  2  2  0  0  0  0
 32 33  1  0  0  0  0
 33 34  2  0  0  0  0
  2  3  1  0  0  0  0
 34 35  1  0  0  0  0
 35 36  2  0  0  0  0
 36 30  1  0  0  0  0
 12 13  2  0  0  0  0
 32 37  1  0  0  0  0
 13 14  1  0  0  0  0
 14 38  1  0  0  0  0
 14 15  2  0  0  0  0
 38 39  1  0  0  0  0
 15 11  1  0  0  0  0
 38 40  2  0  0  0  0
  3  4  2  0  0  0  0
 39 41  1  0  0  0  0
 16  9  1  1  0  0  0
 41 42  1  0  0  0  0
M  END
>  <Mol Weight>
605.537

>  <Formula>
C22H23N9O10S

>  <chembl_id>
CHEMBL1198965

$$$$

  Mrv0541 06201412482D          

 43 47  0  0  0  0            999 V2000
    0.5414   -0.8638    0.0000 C   0  0  2  0  0  0  0  0  0  0  0  0
    2.6849   -3.7513    0.0000 O   0  3  0  0  0  0  0  0  0  0  0  0
   -0.8875   -0.8638    0.0000 C   0  0  2  0  0  0  0  0  0  0  0  0
    1.2559   -1.2763    0.0000 C   0  0  1  0  0  0  0  0  0  0  0  0
   -1.6020   -1.2763    0.0000 C   0  0  1  0  0  0  0  0  0  0  0  0
    0.5414   -0.0388    0.0000 C   0  0  2  0  0  0  0  0  0  0  0  0
   -2.3164   -0.8638    0.0000 C   0  0  2  0  0  0  0  0  0  0  0  0
    3.3993   -3.3388    0.0000 C   0  0  0  0  0  0  0  0  0  0  0  0
    1.9704   -3.3388    0.0000 C   0  0  0  0  0  0  0  0  0  0  0  0
   -0.1730   -1.2763    0.0000 O   0  0  0  0  0  0  0  0  0  0  0  0
   -0.8875   -0.0388    0.0000 O   0  0  0  0  0  0  0  0  0  0  0  0
    1.9704   -2.5138    0.0000 C   0  0  0  0  0  0  0  0  0  0  0  0
    3.3993   -2.5138    0.0000 C   0  0  0  0  0  0  0  0  0  0  0  0
    1.9704   -0.8638    0.0000 O   0  0  0  0  0  0  0  0  0  0  0  0
   -2.3164   -0.0388    0.0000 C   0  0  1  0  0  0  0  0  0  0  0  0
    1.2559    0.3737    0.0000 C   0  0  1  0  0  0  0  0  0  0  0  0
   -1.6020    0.3737    0.0000 C   0  0  1  0  0  0  0  0  0  0  0  0
    1.2559   -2.1013    0.0000 O   0  0  0  0  0  0  0  0  0  0  0  0
    2.6849   -2.1013    0.0000 C   0  0  0  0  0  0  0  0  0  0  0  0
    1.2559   -3.7513    0.0000 C   0  0  0  0  0  0  0  0  0  0  0  0
    1.9704   -0.0388    0.0000 C   0  0  1  0  0  0  0  0  0  0  0  0
    4.1138   -2.1013    0.0000 C   0  0  0  0  0  0  0  0  0  0  0  0
    4.1138   -3.7513    0.0000 C   0  0  0  0  0  0  0  0  0  0  0  0
    4.8283   -2.5138    0.0000 C   0  0  0  0  0  0  0  0  0  0  0  0
    0.5414   -3.3388    0.0000 C   0  0  0  0  0  0  0  0  0  0  0  0
   -0.1730   -3.7513    0.0000 C   0  0  0  0  0  0  0  0  0  0  0  0
    4.8283   -3.3388    0.0000 C   0  0  0  0  0  0  0  0  0  0  0  0
   -0.1730   -4.5763    0.0000 C   0  0  0  0  0  0  0  0  0  0  0  0
    1.2559   -4.5763    0.0000 C   0  0  0  0  0  0  0  0  0  0  0  0
    0.5414   -4.9888    0.0000 C   0  0  0  0  0  0  0  0  0  0  0  0
   -1.6020   -2.1013    0.0000 O   0  0  0  0  0  0  0  0  0  0  0  0
   -0.1730    0.3737    0.0000 O   0  0  0  0  0  0  0  0  0  0  0  0
   -3.0309   -1.2763    0.0000 O   0  0  0  0  0  0  0  0  0  0  0  0
   -3.0309    0.3737    0.0000 O   0  0  0  0  0  0  0  0  0  0  0  0
    1.2559    1.1987    0.0000 O   0  0  0  0  0  0  0  0  0  0  0  0
    4.1138   -1.2763    0.0000 O   0  0  0  0  0  0  0  0  0  0  0  0
   -0.8875   -3.3388    0.0000 O   0  0  0  0  0  0  0  0  0  0  0  0
   -1.6020    1.1987    0.0000 C   0  0  0  0  0  0  0  0  0  0  0  0
    5.5427   -3.7513    0.0000 O   0  0  0  0  0  0  0  0  0  0  0  0
   -0.8875   -4.9888    0.0000 O   0  0  0  0  0  0  0  0  0  0  0  0
   -0.8875    1.6112    0.0000 O   0  0  0  0  0  0  0  0  0  0  0  0
    2.6849    0.3737    0.0000 C   0  0  0  0  0  0  0  0  0  0  0  0
   -0.8875   -1.6888    0.0000 H   0  0  0  0  0  0  0  0  0  0  0  0
  2  9  2  0  0  0  0
  3 10  1  0  0  0  0
  4  1  1  0  0  0  0
  5  3  1  0  0  0  0
  6  1  1  0  0  0  0
  7  5  1  0  0  0  0
  8  2  1  0  0  0  0
  9 12  1  0  0  0  0
  1 10  1  1  0  0  0
 11  3  1  0  0  0  0
 12 18  1  0  0  0  0
 13 19  1  0  0  0  0
 14  4  1  0  0  0  0
 15  7  1  0  0  0  0
 16  6  1  0  0  0  0
 17 11  1  0  0  0  0
  4 18  1  1  0  0  0
 19 12  2  0  0  0  0
 20  9  1  0  0  0  0
 21 16  1  0  0  0  0
 22 13  2  0  0  0  0
 23  8  2  0  0  0  0
 24 22  1  0  0  0  0
 25 20  1  0  0  0  0
 26 25  2  0  0  0  0
 27 23  1  0  0  0  0
 28 26  1  0  0  0  0
 29 20  2  0  0  0  0
 30 29  1  0  0  0  0
  5 31  1  6  0  0  0
  6 32  1  1  0  0  0
  7 33  1  1  0  0  0
 15 34  1  6  0  0  0
 16 35  1  6  0  0  0
 36 22  1  0  0  0  0
 37 26  1  0  0  0  0
 17 38  1  1  0  0  0
 39 27  1  0  0  0  0
 40 28  1  0  0  0  0
 41 38  1  0  0  0  0
 21 42  1  1  0  0  0
  3 43  1  6  0  0  0
 14 21  1  0  0  0  0
 17 15  1  0  0  0  0
 13  8  1  0  0  0  0
 28 30  2  0  0  0  0
 24 27  2  0  0  0  0
M  CHG  1   2   1
M  END
>  <Mol Weight>
595.5255

>  <Formula>
C27H31O15

>  <chembl_id>
CHEMBL1171061

$$$$

  Mrv0541 06201412482D          

 45 49  0  0  0  0            999 V2000
    9.4370   -2.5625    0.0000 C   0  0  0  0  0  0  0  0  0  0  0  0
   10.1490   -1.3292    0.0000 N   0  0  0  0  0  0  0  0  0  0  0  0
    9.4370   -0.9125    0.0000 C   0  0  0  0  0  0  0  0  0  0  0  0
    8.7250   -2.1542    0.0000 C   0  0  1  0  0  0  0  0  0  0  0  0
    8.7250   -1.3292    0.0000 C   0  0  1  0  0  0  0  0  0  0  0  0
    7.9405   -1.0742    0.0000 O   0  0  0  0  0  0  0  0  0  0  0  0
    7.4555   -1.7416    0.0000 C   0  0  0  0  0  0  0  0  0  0  0  0
    7.9404   -2.4090    0.0000 O   0  0  0  0  0  0  0  0  0  0  0  0
    9.4370   -3.3875    0.0000 N   0  0  0  0  0  0  0  0  0  0  0  0
   10.1515   -3.8000    0.0000 C   0  0  0  0  0  0  0  0  0  0  0  0
    9.4370   -0.0875    0.0000 O   0  0  0  0  0  0  0  0  0  0  0  0
   10.1442   -2.1542    0.0000 O   0  0  0  0  0  0  0  0  0  0  0  0
   10.8659   -0.9209    0.0000 C   0  0  2  0  0  0  0  0  0  0  0  0
   11.5780   -1.3375    0.0000 C   0  0  0  0  0  0  0  0  0  0  0  0
   10.8707   -0.0959    0.0000 C   0  0  0  0  0  0  0  0  0  0  0  0
   11.5876    0.3124    0.0000 C   0  0  0  0  0  0  0  0  0  0  0  0
   11.5745   -2.1618    0.0000 O   0  0  0  0  0  0  0  0  0  0  0  0
   12.2962   -0.9285    0.0000 O   0  0  0  0  0  0  0  0  0  0  0  0
   12.2991   -0.1073    0.0000 C   0  0  0  0  0  0  0  0  0  0  0  0
   13.0155    0.3004    0.0000 C   0  0  0  0  0  0  0  0  0  0  0  0
   13.0207    1.1262    0.0000 C   0  0  0  0  0  0  0  0  0  0  0  0
   12.3037    1.5428    0.0000 C   0  0  0  0  0  0  0  0  0  0  0  0
   11.5902    1.1328    0.0000 C   0  0  0  0  0  0  0  0  0  0  0  0
   10.1472   -4.6261    0.0000 C   0  0  0  0  0  0  0  0  0  0  0  0
   10.8609   -5.0385    0.0000 C   0  0  0  0  0  0  0  0  0  0  0  0
   11.5763   -4.6259    0.0000 C   0  0  0  0  0  0  0  0  0  0  0  0
   11.5737   -3.7967    0.0000 C   0  0  0  0  0  0  0  0  0  0  0  0
   10.8594   -3.3880    0.0000 C   0  0  0  0  0  0  0  0  0  0  0  0
    9.4364   -5.0349    0.0000 C   0  0  0  0  0  0  0  0  0  0  0  0
    8.7228   -4.6187    0.0000 C   0  0  0  0  0  0  0  0  0  0  0  0
    8.0076   -5.0285    0.0000 C   0  0  0  0  0  0  0  0  0  0  0  0
    8.0049   -5.8544    0.0000 C   0  0  0  0  0  0  0  0  0  0  0  0
    8.7232   -6.2687    0.0000 C   0  0  0  0  0  0  0  0  0  0  0  0
    9.4354   -5.8565    0.0000 C   0  0  0  0  0  0  0  0  0  0  0  0
   13.7371    1.5355    0.0000 N   0  0  0  0  0  0  0  0  0  0  0  0
   14.4497    1.1197    0.0000 C   0  0  0  0  0  0  0  0  0  0  0  0
   15.1660    1.5290    0.0000 C   0  0  0  0  0  0  0  0  0  0  0  0
   14.4459    0.2948    0.0000 O   0  0  0  0  0  0  0  0  0  0  0  0
   15.8783    1.1110    0.0000 C   0  0  0  0  0  0  0  0  0  0  0  0
   16.5942    1.5196    0.0000 C   0  0  0  0  0  0  0  0  0  0  0  0
   16.5983    2.3454    0.0000 C   0  0  0  0  0  0  0  0  0  0  0  0
   15.8807    2.7610    0.0000 C   0  0  0  0  0  0  0  0  0  0  0  0
   15.1678    2.3501    0.0000 C   0  0  0  0  0  0  0  0  0  0  0  0
   14.4539    2.7636    0.0000 O   0  0  0  0  0  0  0  0  0  0  0  0
   14.4551    3.5886    0.0000 C   0  0  0  0  0  0  0  0  0  0  0  0
  5  3  1  1  0  0  0
 22 23  2  0  0  0  0
 23 16  1  0  0  0  0
  3 11  2  0  0  0  0
 10 24  2  0  0  0  0
  4  1  1  6  0  0  0
 24 25  1  0  0  0  0
  1 12  2  0  0  0  0
 25 26  2  0  0  0  0
  2 13  1  0  0  0  0
 26 27  1  0  0  0  0
  2  3  1  0  0  0  0
 27 28  2  0  0  0  0
 28 10  1  0  0  0  0
 13 14  1  0  0  0  0
  5  6  1  0  0  0  0
 29 30  2  0  0  0  0
 13 15  1  1  0  0  0
 30 31  1  0  0  0  0
  6  7  1  0  0  0  0
 31 32  2  0  0  0  0
 15 16  1  0  0  0  0
 32 33  1  0  0  0  0
  7  8  1  0  0  0  0
 33 34  2  0  0  0  0
 34 29  1  0  0  0  0
 24 29  1  0  0  0  0
  8  4  1  0  0  0  0
 21 35  1  0  0  0  0
 14 17  1  0  0  0  0
 35 36  1  0  0  0  0
 14 18  2  0  0  0  0
 36 37  1  0  0  0  0
  4  5  1  0  0  0  0
 36 38  2  0  0  0  0
 16 19  2  0  0  0  0
 37 39  2  0  0  0  0
  1  9  1  0  0  0  0
 39 40  1  0  0  0  0
 19 20  1  0  0  0  0
 40 41  2  0  0  0  0
 41 42  1  0  0  0  0
 20 21  2  0  0  0  0
 42 43  2  0  0  0  0
 43 37  1  0  0  0  0
  9 10  1  0  0  0  0
 43 44  1  0  0  0  0
 21 22  1  0  0  0  0
 44 45  1  0  0  0  0
M  END
>  <Mol Weight>
609.6252

>  <Formula>
C34H31N3O8

>  <chembl_id>
CHEMBL1223923

$$$$

  Mrv0541 06201412482D          

 44 48  0  0  0  0            999 V2000
   -3.1963  -13.4542    0.0000 C   0  0  0  0  0  0  0  0  0  0  0  0
   -2.4843  -12.2208    0.0000 N   0  0  0  0  0  0  0  0  0  0  0  0
   -3.1963  -11.8042    0.0000 C   0  0  0  0  0  0  0  0  0  0  0  0
   -3.9083  -13.0458    0.0000 C   0  0  1  0  0  0  0  0  0  0  0  0
   -3.9083  -12.2209    0.0000 C   0  0  1  0  0  0  0  0  0  0  0  0
   -4.6929  -11.9659    0.0000 O   0  0  0  0  0  0  0  0  0  0  0  0
   -5.1779  -12.6333    0.0000 C   0  0  0  0  0  0  0  0  0  0  0  0
   -4.6929  -13.3007    0.0000 O   0  0  0  0  0  0  0  0  0  0  0  0
   -3.1963  -14.2792    0.0000 N   0  0  0  0  0  0  0  0  0  0  0  0
   -2.4818  -14.6917    0.0000 C   0  0  0  0  0  0  0  0  0  0  0  0
   -3.1963  -10.9792    0.0000 O   0  0  0  0  0  0  0  0  0  0  0  0
   -2.4891  -13.0458    0.0000 O   0  0  0  0  0  0  0  0  0  0  0  0
   -1.7674  -11.8125    0.0000 C   0  0  2  0  0  0  0  0  0  0  0  0
   -1.0554  -12.2292    0.0000 C   0  0  0  0  0  0  0  0  0  0  0  0
   -1.7626  -10.9875    0.0000 C   0  0  0  0  0  0  0  0  0  0  0  0
   -1.0457  -10.5792    0.0000 C   0  0  0  0  0  0  0  0  0  0  0  0
   -1.0588  -13.0534    0.0000 O   0  0  0  0  0  0  0  0  0  0  0  0
   -0.3371  -11.8201    0.0000 O   0  0  0  0  0  0  0  0  0  0  0  0
   -0.3343  -10.9989    0.0000 C   0  0  0  0  0  0  0  0  0  0  0  0
    0.3821  -10.5913    0.0000 C   0  0  0  0  0  0  0  0  0  0  0  0
    0.3874   -9.7654    0.0000 C   0  0  0  0  0  0  0  0  0  0  0  0
   -0.3297   -9.3489    0.0000 C   0  0  0  0  0  0  0  0  0  0  0  0
   -1.0431   -9.7589    0.0000 C   0  0  0  0  0  0  0  0  0  0  0  0
   -2.4861  -15.5177    0.0000 C   0  0  0  0  0  0  0  0  0  0  0  0
   -1.7725  -15.9302    0.0000 C   0  0  0  0  0  0  0  0  0  0  0  0
   -1.0570  -15.5176    0.0000 C   0  0  0  0  0  0  0  0  0  0  0  0
   -1.0597  -14.6883    0.0000 C   0  0  0  0  0  0  0  0  0  0  0  0
   -1.7739  -14.2797    0.0000 C   0  0  0  0  0  0  0  0  0  0  0  0
   -3.1970  -15.9266    0.0000 C   0  0  0  0  0  0  0  0  0  0  0  0
   -3.9106  -15.5103    0.0000 C   0  0  0  0  0  0  0  0  0  0  0  0
   -4.6257  -15.9201    0.0000 C   0  0  0  0  0  0  0  0  0  0  0  0
   -4.6284  -16.7460    0.0000 C   0  0  0  0  0  0  0  0  0  0  0  0
   -3.9101  -17.1604    0.0000 C   0  0  0  0  0  0  0  0  0  0  0  0
   -3.1979  -16.7482    0.0000 C   0  0  0  0  0  0  0  0  0  0  0  0
    1.1037   -9.3562    0.0000 O   0  0  0  0  0  0  0  0  0  0  0  0
    1.8163   -9.7719    0.0000 C   0  0  0  0  0  0  0  0  0  0  0  0
    2.5327   -9.3627    0.0000 C   0  0  0  0  0  0  0  0  0  0  0  0
    3.2450   -9.7807    0.0000 C   0  0  0  0  0  0  0  0  0  0  0  0
    3.9608   -9.3721    0.0000 C   0  0  0  0  0  0  0  0  0  0  0  0
    3.9650   -8.5462    0.0000 C   0  0  0  0  0  0  0  0  0  0  0  0
    3.2474   -8.1306    0.0000 C   0  0  0  0  0  0  0  0  0  0  0  0
    2.5345   -8.5416    0.0000 C   0  0  0  0  0  0  0  0  0  0  0  0
    1.8206   -8.1281    0.0000 F   0  0  0  0  0  0  0  0  0  0  0  0
    3.2400  -10.6057    0.0000 F   0  0  0  0  0  0  0  0  0  0  0  0
 21 22  1  0  0  0  0
  5  3  1  1  0  0  0
 22 23  2  0  0  0  0
 23 16  1  0  0  0  0
  3 11  2  0  0  0  0
 10 24  2  0  0  0  0
  4  1  1  6  0  0  0
 24 25  1  0  0  0  0
  1 12  2  0  0  0  0
 25 26  2  0  0  0  0
  2 13  1  0  0  0  0
 26 27  1  0  0  0  0
  2  3  1  0  0  0  0
 27 28  2  0  0  0  0
 28 10  1  0  0  0  0
 13 14  1  0  0  0  0
  5  6  1  0  0  0  0
 29 30  2  0  0  0  0
 13 15  1  1  0  0  0
 30 31  1  0  0  0  0
  6  7  1  0  0  0  0
 31 32  2  0  0  0  0
 15 16  1  0  0  0  0
 32 33  1  0  0  0  0
  7  8  1  0  0  0  0
 33 34  2  0  0  0  0
 34 29  1  0  0  0  0
 24 29  1  0  0  0  0
  8  4  1  0  0  0  0
 21 35  1  0  0  0  0
 14 17  1  0  0  0  0
 35 36  1  0  0  0  0
 14 18  2  0  0  0  0
 36 37  1  0  0  0  0
  4  5  1  0  0  0  0
 37 38  2  0  0  0  0
 16 19  2  0  0  0  0
 38 39  1  0  0  0  0
  1  9  1  0  0  0  0
 39 40  2  0  0  0  0
 19 20  1  0  0  0  0
 40 41  1  0  0  0  0
 41 42  2  0  0  0  0
 42 37  1  0  0  0  0
 20 21  2  0  0  0  0
 42 43  1  0  0  0  0
  9 10  1  0  0  0  0
 38 44  1  0  0  0  0
M  END
>  <Mol Weight>
602.5814

>  <Formula>
C33H28F2N2O7

>  <chembl_id>
CHEMBL1223924

$$$$

  Mrv0541 06201412482D          

 39 40  0  0  0  0            999 V2000
   15.2248   -3.2477    0.0000 N   0  3  0  0  0  0  0  0  0  0  0  0
   15.4826   -2.3428    0.0000 C   0  0  0  0  0  0  0  0  0  0  0  0
   16.4678   -2.3428    0.0000 S   0  0  0  0  0  0  0  0  0  0  0  0
   15.9122   -3.8034    0.0000 C   0  0  0  0  0  0  0  0  0  0  0  0
    8.7122   -2.0163    0.0000 O   0  0  0  0  0  0  0  0  0  0  0  0
    6.1862   -1.9761    0.0000 C   0  0  0  0  0  0  0  0  0  0  0  0
   10.9347   -3.2477    0.0000 C   0  0  0  0  0  0  0  0  0  0  0  0
   16.5537   -3.3222    0.0000 C   0  0  0  0  0  0  0  0  0  0  0  0
    6.5184   -1.2200    0.0000 O   0  0  0  0  0  0  0  0  0  0  0  0
   10.9347   -4.0726    0.0000 O   0  0  0  0  0  0  0  0  0  0  0  0
   10.2243   -2.8353    0.0000 O   0  0  0  0  0  0  0  0  0  0  0  0
    7.4921   -2.5490    0.0000 C   0  0  0  0  0  0  0  0  0  0  0  0
    6.6731   -2.6349    0.0000 C   0  0  0  0  0  0  0  0  0  0  0  0
    7.9045   -1.8444    0.0000 C   0  0  0  0  0  0  0  0  0  0  0  0
    8.7981   -2.8353    0.0000 C   0  0  0  0  0  0  0  0  0  0  0  0
    5.3671   -2.0621    0.0000 O   0  0  0  0  0  0  0  0  0  0  0  0
   14.5089   -2.8353    0.0000 C   0  0  0  0  0  0  0  0  0  0  0  0
    8.0420   -3.1676    0.0000 C   0  0  0  0  0  0  0  0  0  0  0  0
    4.8802   -1.3919    0.0000 N   0  0  0  0  0  0  0  0  0  0  0  0
    9.5084   -3.2477    0.0000 C   0  0  0  0  0  0  0  0  0  0  0  0
   11.6564   -2.8353    0.0000 C   0  0  0  0  0  0  0  0  0  0  0  0
    4.0611   -1.4836    0.0000 C   0  0  0  0  0  0  0  0  0  0  0  0
   13.7986   -3.2477    0.0000 C   0  0  0  0  0  0  0  0  0  0  0  0
   12.3609   -3.2477    0.0000 C   0  0  0  0  0  0  0  0  0  0  0  0
    3.5742   -0.8134    0.0000 C   0  0  0  0  0  0  0  0  0  0  0  0
   -4.2558    2.6749    0.0000 C   0  0  0  0  0  0  0  0  0  0  0  0
   -3.7747    2.0047    0.0000 C   0  0  0  0  0  0  0  0  0  0  0  0
    2.2683   -0.2292    0.0000 C   0  0  0  0  0  0  0  0  0  0  0  0
    1.4492   -0.3151    0.0000 C   0  0  0  0  0  0  0  0  0  0  0  0
   13.0826   -2.8353    0.0000 C   0  0  0  0  0  0  0  0  0  0  0  0
    0.9681    0.3551    0.0000 C   0  0  0  0  0  0  0  0  0  0  0  0
    0.1432    0.2692    0.0000 C   0  0  0  0  0  0  0  0  0  0  0  0
   -2.4687    1.4263    0.0000 C   0  0  0  0  0  0  0  0  0  0  0  0
   -2.9498    2.0906    0.0000 C   0  0  0  0  0  0  0  0  0  0  0  0
   -0.3379    0.9279    0.0000 C   0  0  0  0  0  0  0  0  0  0  0  0
   -1.1627    0.8420    0.0000 C   0  0  0  0  0  0  0  0  0  0  0  0
   -1.6439    1.5122    0.0000 C   0  0  0  0  0  0  0  0  0  0  0  0
    2.7552   -0.8993    0.0000 C   0  0  0  0  0  0  0  0  0  0  0  0
   -5.0806    2.5890    0.0000 C   0  0  0  0  0  0  0  0  0  0  0  0
  2  1  2  0  0  0  0
  3  2  1  0  0  0  0
  4  1  1  0  0  0  0
  5 15  1  0  0  0  0
  6 13  1  0  0  0  0
  7 21  1  0  0  0  0
  8  4  2  0  0  0  0
  9  6  2  0  0  0  0
 10  7  2  0  0  0  0
 11  7  1  0  0  0  0
 12 18  1  0  0  0  0
 13 12  1  0  0  0  0
 14  5  1  0  0  0  0
 15 20  1  0  0  0  0
 16  6  1  0  0  0  0
 17  1  1  0  0  0  0
 18 15  1  0  0  0  0
 19 16  1  0  0  0  0
 20 11  1  0  0  0  0
 21 24  1  0  0  0  0
 22 19  1  0  0  0  0
 23 17  1  0  0  0  0
 24 30  1  0  0  0  0
 25 22  1  0  0  0  0
 26 27  1  0  0  0  0
 27 34  1  0  0  0  0
 28 38  1  0  0  0  0
 29 28  1  0  0  0  0
 30 23  1  0  0  0  0
 31 29  1  0  0  0  0
 32 31  1  0  0  0  0
 33 37  1  0  0  0  0
 34 33  1  0  0  0  0
 35 32  1  0  0  0  0
 36 35  1  0  0  0  0
 37 36  1  0  0  0  0
 38 25  1  0  0  0  0
 39 26  1  0  0  0  0
  3  8  1  0  0  0  0
 12 14  1  0  0  0  0
M  CHG  1   1   1
M  END
>  <Mol Weight>
567.843

>  <Formula>
C31H55N2O5S

>  <chembl_id>
CHEMBL1184258

$$$$

  Mrv0541 06201412482D          

 44 49  0  0  0  0            999 V2000
   -1.9226   -2.1952    0.0000 C   0  0  0  0  0  0  0  0  0  0  0  0
   -1.9222   -3.0195    0.0000 C   0  0  0  0  0  0  0  0  0  0  0  0
   -2.7500   -3.0151    0.0000 C   0  0  0  0  0  0  0  0  0  0  0  0
   -1.1042   -3.0193    0.0000 C   0  0  0  0  0  0  0  0  0  0  0  0
   -1.9123   -3.8375    0.0000 C   0  0  0  0  0  0  0  0  0  0  0  0
   -0.6968   -3.7299    0.0000 C   0  0  0  0  0  0  0  0  0  0  0  0
    0.1205   -3.7300    0.0000 C   0  0  0  0  0  0  0  0  0  0  0  0
    0.5301   -3.0209    0.0000 C   0  0  0  0  0  0  0  0  0  0  0  0
    0.1166   -2.3102    0.0000 C   0  0  0  0  0  0  0  0  0  0  0  0
   -0.6994   -2.3136    0.0000 C   0  0  0  0  0  0  0  0  0  0  0  0
   -2.6169   -4.2523    0.0000 C   0  0  0  0  0  0  0  0  0  0  0  0
   -2.6073   -5.0696    0.0000 C   0  0  0  0  0  0  0  0  0  0  0  0
   -1.8934   -5.4708    0.0000 C   0  0  0  0  0  0  0  0  0  0  0  0
   -1.1876   -5.0488    0.0000 C   0  0  0  0  0  0  0  0  0  0  0  0
   -1.2006   -4.2329    0.0000 C   0  0  0  0  0  0  0  0  0  0  0  0
   -3.1582   -2.2937    0.0000 C   0  0  0  0  0  0  0  0  0  0  0  0
   -3.9852   -2.2890    0.0000 C   0  0  0  0  0  0  0  0  0  0  0  0
   -4.4037   -3.0041    0.0000 C   0  0  0  0  0  0  0  0  0  0  0  0
   -3.9892   -3.7256    0.0000 C   0  0  0  0  0  0  0  0  0  0  0  0
   -3.1635   -3.7268    0.0000 C   0  0  0  0  0  0  0  0  0  0  0  0
   -0.5423   -0.4776    0.0000 C   0  0  2  0  0  0  0  0  0  0  0  0
   -0.7979    0.3042    0.0000 C   0  0  0  0  0  0  0  0  0  0  0  0
   -1.6229    0.3042    0.0000 C   0  0  0  0  0  0  0  0  0  0  0  0
   -1.8745   -0.4776    0.0000 C   0  0  0  0  0  0  0  0  0  0  0  0
   -1.2105   -0.9644    0.0000 N   0  0  0  0  0  0  0  0  0  0  0  0
   -1.2105   -1.7855    0.0000 C   0  0  0  0  0  0  0  0  0  0  0  0
    0.1878   -0.0453    0.0000 C   0  0  0  0  0  0  0  0  0  0  0  0
    0.9277   -0.4618    0.0000 N   0  0  0  0  0  0  0  0  0  0  0  0
    0.1785    0.8037    0.0000 O   0  0  0  0  0  0  0  0  0  0  0  0
    1.0252   -1.3016    0.0000 C   0  0  0  0  0  0  0  0  0  0  0  0
    1.8576   -1.4690    0.0000 C   0  0  0  0  0  0  0  0  0  0  0  0
    2.2741   -0.7291    0.0000 C   0  0  0  0  0  0  0  0  0  0  0  0
    1.6990   -0.1044    0.0000 C   0  0  2  0  0  0  0  0  0  0  0  0
    2.2945    0.4994    0.0000 C   0  0  0  0  0  0  0  0  0  0  0  0
    3.1161    0.2853    0.0000 N   0  0  0  0  0  0  0  0  0  0  0  0
    2.0690    1.3180    0.0000 O   0  0  0  0  0  0  0  0  0  0  0  0
    3.7121    0.8899    0.0000 C   0  0  2  0  0  0  0  0  0  0  0  0
    4.5322    0.6742    0.0000 C   0  0  2  0  0  0  0  0  0  0  0  0
    5.1271    1.2747    0.0000 C   0  0  0  0  0  0  0  0  0  0  0  0
    4.9058    2.0948    0.0000 C   0  0  0  0  0  0  0  0  0  0  0  0
    4.0837    2.3111    0.0000 C   0  0  0  0  0  0  0  0  0  0  0  0
    3.4830    1.7072    0.0000 C   0  0  0  0  0  0  0  0  0  0  0  0
    4.7556   -0.1449    0.0000 N   0  0  0  0  0  0  0  0  0  0  0  0
   -0.3917   -1.7833    0.0000 O   0  0  0  0  0  0  0  0  0  0  0  0
 13 14  1  0  0  0  0
  6  7  1  0  0  0  0
 14 15  2  0  0  0  0
 15  5  1  0  0  0  0
  3 16  2  0  0  0  0
  7  8  2  0  0  0  0
 16 17  1  0  0  0  0
  2  4  1  0  0  0  0
 17 18  2  0  0  0  0
  8  9  1  0  0  0  0
 18 19  1  0  0  0  0
  1  2  1  0  0  0  0
 19 20  2  0  0  0  0
 20  3  1  0  0  0  0
  9 10  2  0  0  0  0
 25 26  1  0  0  0  0
 26  1  1  0  0  0  0
 21 27  1  1  0  0  0
 27 28  1  0  0  0  0
 27 29  2  0  0  0  0
 28 30  1  0  0  0  0
 30 31  1  0  0  0  0
 31 32  1  0  0  0  0
 32 33  1  0  0  0  0
 33 28  1  0  0  0  0
 33 34  1  1  0  0  0
 34 35  1  0  0  0  0
 34 36  2  0  0  0  0
 37 35  1  1  0  0  0
 37 38  1  0  0  0  0
 21 22  1  0  0  0  0
 22 23  1  0  0  0  0
 23 24  1  0  0  0  0
 24 25  1  0  0  0  0
 37 42  1  0  0  0  0
 38 39  1  0  0  0  0
 39 40  1  0  0  0  0
 40 41  1  0  0  0  0
 41 42  1  0  0  0  0
 25 21  1  0  0  0  0
 38 43  1  6  0  0  0
 10  4  1  0  0  0  0
 26 44  2  0  0  0  0
  2  5  1  0  0  0  0
  5 11  2  0  0  0  0
 11 12  1  0  0  0  0
  4  6  2  0  0  0  0
 12 13  2  0  0  0  0
  2  3  1  0  0  0  0
M  END
>  <Mol Weight>
592.7703

>  <Formula>
C37H44N4O3

>  <chembl_id>
CHEMBL1185290

$$$$

  Mrv0541 06201412482D          

 43 46  0  0  0  0            999 V2000
    1.4293   -0.8252    0.0000 S   0  0  0  0  0  0  0  0  0  0  0  0
    6.0225    0.8204    0.0000 N   0  0  0  0  0  0  0  0  0  0  0  0
    2.1444   -0.4129    0.0000 N   0  0  0  0  0  0  0  0  0  0  0  0
    6.8475    0.8201    0.0000 C   0  0  2  0  0  0  0  0  0  0  0  0
    5.7672    0.0359    0.0000 O   0  0  0  0  0  0  0  0  0  0  0  0
    2.8593   -0.8257    0.0000 C   0  0  2  0  0  0  0  0  0  0  0  0
    0.7144   -0.4125    0.0000 C   0  0  0  0  0  0  0  0  0  0  0  0
    6.4344   -0.4143    0.0000 C   0  0  1  0  0  0  0  0  0  0  0  0
    2.8591   -1.6511    0.0000 C   0  0  0  0  0  0  0  0  0  0  0  0
    6.5718    4.1020    0.0000 C   0  0  0  0  0  0  0  0  0  0  0  0
    7.1021    0.0353    0.0000 C   0  0  0  0  0  0  0  0  0  0  0  0
    5.7193   -0.8266    0.0000 C   0  0  0  0  0  0  0  0  0  0  0  0
    5.0044   -0.4139    0.0000 C   0  0  0  0  0  0  0  0  0  0  0  0
    2.0007   -1.1555    0.0000 O   0  0  0  0  0  0  0  0  0  0  0  0
    1.4291   -1.4852    0.0000 O   0  0  0  0  0  0  0  0  0  0  0  0
    6.7786    1.6352    0.0000 C   0  0  0  0  0  0  0  0  0  0  0  0
    5.3384    1.2823    0.0000 C   0  0  0  0  0  0  0  0  0  0  0  0
    6.6397    3.2793    0.0000 C   0  0  0  0  0  0  0  0  0  0  0  0
    7.1141    4.4782    0.0000 N   0  0  0  0  0  0  0  0  0  0  0  0
    4.2893   -0.8261    0.0000 N   0  0  0  0  0  0  0  0  0  0  0  0
    3.5744   -0.4134    0.0000 C   0  0  0  0  0  0  0  0  0  0  0  0
    0.7144    0.4125    0.0000 C   0  0  0  0  0  0  0  0  0  0  0  0
    3.4303   -1.9817    0.0000 O   0  0  0  0  0  0  0  0  0  0  0  0
    5.0047    0.2461    0.0000 O   0  0  0  0  0  0  0  0  0  0  0  0
    6.0319    1.9860    0.0000 C   0  0  0  0  0  0  0  0  0  0  0  0
    7.4558    2.1064    0.0000 C   0  0  0  0  0  0  0  0  0  0  0  0
    5.9624    2.8081    0.0000 C   0  0  0  0  0  0  0  0  0  0  0  0
    7.3863    2.9285    0.0000 C   0  0  0  0  0  0  0  0  0  0  0  0
    5.9749    4.3837    0.0000 N   0  0  0  0  0  0  0  0  0  0  0  0
    2.2873   -1.9807    0.0000 O   0  0  0  0  0  0  0  0  0  0  0  0
    0.0000    0.8250    0.0000 C   0  0  0  0  0  0  0  0  0  0  0  0
    0.0000   -0.8250    0.0000 C   0  0  0  0  0  0  0  0  0  0  0  0
   -0.7144   -0.4125    0.0000 C   0  0  0  0  0  0  0  0  0  0  0  0
    5.3348    2.1046    0.0000 C   0  0  0  0  0  0  0  0  0  0  0  0
    4.6265    0.8635    0.0000 C   0  0  0  0  0  0  0  0  0  0  0  0
   -0.7144    0.4125    0.0000 C   0  0  0  0  0  0  0  0  0  0  0  0
    0.0000    1.4850    0.0000 C   0  0  0  0  0  0  0  0  0  0  0  0
    3.9100    1.2724    0.0000 C   0  0  0  0  0  0  0  0  0  0  0  0
    4.6182    2.5135    0.0000 C   0  0  0  0  0  0  0  0  0  0  0  0
    3.9059    2.0974    0.0000 C   0  0  0  0  0  0  0  0  0  0  0  0
    6.9106   -0.6894    0.0000 H   0  0  0  0  0  0  0  0  0  0  0  0
    7.3935    0.7542    0.0000 H   0  0  0  0  0  0  0  0  0  0  0  0
    2.3830   -1.1006    0.0000 H   0  0  0  0  0  0  0  0  0  0  0  0
  1  3  1  0  0  0  0
  2  4  1  0  0  0  0
  2  5  1  0  0  0  0
  3  6  1  0  0  0  0
  1  7  1  0  0  0  0
  5  8  1  0  0  0  0
  6  9  1  0  0  0  0
  4 11  1  0  0  0  0
  8 11  1  0  0  0  0
  8 12  1  1  0  0  0
 12 13  1  0  0  0  0
  1 14  2  0  0  0  0
  1 15  2  0  0  0  0
  4 16  1  1  0  0  0
  2 17  1  0  0  0  0
 10 18  1  0  0  0  0
 10 19  2  0  0  0  0
 13 20  1  0  0  0  0
  6 21  1  0  0  0  0
 20 21  1  0  0  0  0
  7 22  2  0  0  0  0
  9 23  2  0  0  0  0
 13 24  2  0  0  0  0
 16 25  2  0  0  0  0
 16 26  1  0  0  0  0
 18 27  2  0  0  0  0
 25 27  1  0  0  0  0
 18 28  1  0  0  0  0
 26 28  2  0  0  0  0
 10 29  1  0  0  0  0
  9 30  1  0  0  0  0
 22 31  1  0  0  0  0
  7 32  1  0  0  0  0
 32 33  2  0  0  0  0
 17 34  2  0  0  0  0
 17 35  1  0  0  0  0
 31 36  2  0  0  0  0
 33 36  1  0  0  0  0
 31 37  1  0  0  0  0
 35 38  2  0  0  0  0
 34 39  1  0  0  0  0
 38 40  1  0  0  0  0
 39 40  2  0  0  0  0
  8 41  1  6  0  0  0
  4 42  1  6  0  0  0
  6 43  1  6  0  0  0
M  END
>  <Mol Weight>
565.641

>  <Formula>
C28H31N5O6S

>  <chembl_id>
CHEMBL1195110

$$$$

  Mrv0541 06201412482D          

 41 45  0  0  0  0            999 V2000
    3.6179   -5.3498    0.0000 P   0  0  0  0  0  0  0  0  0  0  0  0
    2.5205   -4.3608    0.0000 N   0  0  0  0  0  0  0  0  0  0  0  0
    3.3217   -4.5736    0.0000 C   0  0  0  0  0  0  0  0  0  0  0  0
    1.8903   -4.8991    0.0000 C   0  0  0  0  0  0  0  0  0  0  0  0
    4.1980   -4.7614    0.0000 O   0  0  0  0  0  0  0  0  0  0  0  0
    4.3315   -5.7629    0.0000 O   0  0  0  0  0  0  0  0  0  0  0  0
    0.4256   -5.0869    0.0000 N   0  0  0  0  0  0  0  0  0  0  0  0
    2.7208   -5.3581    0.0000 O   0  0  0  0  0  0  0  0  0  0  0  0
    7.2401   -1.9822    0.0000 N   0  0  0  0  0  0  0  0  0  0  0  0
    7.8994   -7.0022    0.0000 N   0  0  0  0  0  0  0  0  0  0  0  0
    1.1142   -4.6195    0.0000 C   0  0  0  0  0  0  0  0  0  0  0  0
    7.1775   -7.4154    0.0000 N   0  0  0  0  0  0  0  0  0  0  0  0
    6.5348   -2.4078    0.0000 N   0  0  0  0  0  0  0  0  0  0  0  0
    2.0323   -5.7128    0.0000 O   0  0  0  0  0  0  0  0  0  0  0  0
    0.1795   -6.3513    0.0000 Cl  0  0  0  0  0  0  0  0  0  0  0  0
    2.4787   -3.5345    0.0000 C   0  0  0  0  0  0  0  0  0  0  0  0
    4.7864   -4.1730    0.0000 C   0  0  0  0  0  0  0  0  0  0  0  0
    5.0451   -6.1760    0.0000 C   0  0  0  0  0  0  0  0  0  0  0  0
    5.9507   -2.9962    0.0000 C   0  0  0  0  0  0  0  0  0  0  0  0
    6.4639   -7.0022    0.0000 C   0  0  0  0  0  0  0  0  0  0  0  0
    3.7682   -3.8850    0.0000 C   0  0  0  0  0  0  0  0  0  0  0  0
    4.5611   -3.3718    0.0000 C   0  0  0  0  0  0  0  0  0  0  0  0
    5.7504   -5.7587    0.0000 C   0  0  0  0  0  0  0  0  0  0  0  0
    5.5876   -4.3858    0.0000 C   0  0  0  0  0  0  0  0  0  0  0  0
    5.0368   -6.9980    0.0000 C   0  0  0  0  0  0  0  0  0  0  0  0
    6.4639   -6.1760    0.0000 C   0  0  0  0  0  0  0  0  0  0  0  0
    6.1718   -3.7974    0.0000 C   0  0  0  0  0  0  0  0  0  0  0  0
    5.7504   -7.4112    0.0000 C   0  0  0  0  0  0  0  0  0  0  0  0
    5.1452   -2.7834    0.0000 C   0  0  0  0  0  0  0  0  0  0  0  0
   -0.2253   -4.5819    0.0000 C   0  0  0  0  0  0  0  0  0  0  0  0
    3.2466   -3.2424    0.0000 C   0  0  0  0  0  0  0  0  0  0  0  0
    8.6547   -7.3360    0.0000 C   0  0  0  0  0  0  0  0  0  0  0  0
    7.9870   -6.1760    0.0000 C   0  0  0  0  0  0  0  0  0  0  0  0
    7.3152   -1.1559    0.0000 C   0  0  0  0  0  0  0  0  0  0  0  0
    7.9995   -2.3077    0.0000 C   0  0  0  0  0  0  0  0  0  0  0  0
    0.8805   -3.8308    0.0000 C   0  0  0  0  0  0  0  0  0  0  0  0
    0.0543   -3.8057    0.0000 C   0  0  0  0  0  0  0  0  0  0  0  0
    8.7924   -6.0090    0.0000 C   0  0  0  0  0  0  0  0  0  0  0  0
    8.1247   -0.9807    0.0000 C   0  0  0  0  0  0  0  0  0  0  0  0
    8.5421   -1.6900    0.0000 C   0  0  0  0  0  0  0  0  0  0  0  0
    9.2056   -6.7226    0.0000 C   0  0  0  0  0  0  0  0  0  0  0  0
  2  3  1  0  0  0  0
  3  1  1  0  0  0  0
  4  2  1  0  0  0  0
  5  1  1  0  0  0  0
  6  1  1  0  0  0  0
  7 11  1  0  0  0  0
  8  1  2  0  0  0  0
  9 13  1  0  0  0  0
 10 12  1  0  0  0  0
 11  4  1  0  0  0  0
 12 20  1  0  0  0  0
 13 19  1  0  0  0  0
 14  4  2  0  0  0  0
 16  2  1  0  0  0  0
 17  5  1  0  0  0  0
 18  6  1  0  0  0  0
 19 27  2  0  0  0  0
 20 26  1  0  0  0  0
 21  3  1  0  0  0  0
 22 17  1  0  0  0  0
 23 18  1  0  0  0  0
 24 17  2  0  0  0  0
 25 18  2  0  0  0  0
 26 23  2  0  0  0  0
 27 24  1  0  0  0  0
 28 25  1  0  0  0  0
 29 22  2  0  0  0  0
 30  7  1  0  0  0  0
 31 21  1  0  0  0  0
 32 10  1  0  0  0  0
 33 10  1  0  0  0  0
 34  9  1  0  0  0  0
 35  9  1  0  0  0  0
 36 11  1  0  0  0  0
 37 36  1  0  0  0  0
 38 33  1  0  0  0  0
 39 34  1  0  0  0  0
 40 35  1  0  0  0  0
 41 32  1  0  0  0  0
 31 16  1  0  0  0  0
 20 28  2  0  0  0  0
 29 19  1  0  0  0  0
 30 37  1  0  0  0  0
 41 38  1  0  0  0  0
 40 39  1  0  0  0  0
M  END
>  <Mol Weight>
605.108

>  <Formula>
C29H42ClN6O4P

>  <chembl_id>
CHEMBL9527

$$$$

  Mrv0541 06201412482D          

 43 44  0  0  0  0            999 V2000
    5.0792   -4.9750    0.0000 C   0  0  0  0  0  0  0  0  0  0  0  0
    4.3667   -4.5625    0.0000 C   0  0  0  0  0  0  0  0  0  0  0  0
    2.9417   -3.7375    0.0000 C   0  0  0  0  0  0  0  0  0  0  0  0
    5.8917   -5.0667    0.0000 N   0  0  0  0  0  0  0  0  0  0  0  0
    5.0792   -3.3250    0.0000 C   0  0  0  0  0  0  0  0  0  0  0  0
    4.3667   -3.7375    0.0000 C   0  0  1  0  0  0  0  0  0  0  0  0
    4.7292   -5.7292    0.0000 N   0  0  0  0  0  0  0  0  0  0  0  0
    3.6542   -3.3250    0.0000 N   0  0  0  0  0  0  0  0  0  0  0  0
    0.8000   -3.3250    0.0000 C   0  0  0  0  0  0  0  0  0  0  0  0
    2.2250   -3.3250    0.0000 C   0  0  1  0  0  0  0  0  0  0  0  0
    1.5125   -3.7375    0.0000 N   0  0  0  0  0  0  0  0  0  0  0  0
    5.8000   -3.7375    0.0000 N   0  0  0  0  0  0  0  0  0  0  0  0
    5.3292   -6.2792    0.0000 C   0  0  0  0  0  0  0  0  0  0  0  0
    8.6542   -3.7292    0.0000 C   0  0  0  0  0  0  0  0  0  0  0  0
    7.9375   -3.3167    0.0000 C   0  0  0  0  0  0  0  0  0  0  0  0
    6.0500   -5.8792    0.0000 C   0  0  0  0  0  0  0  0  0  0  0  0
    7.2292   -1.2625    0.0000 C   0  0  0  0  0  0  0  0  0  0  0  0
    7.2292   -3.7375    0.0000 C   0  0  0  0  0  0  0  0  0  0  0  0
    2.9417   -4.5625    0.0000 O   0  0  0  0  0  0  0  0  0  0  0  0
    5.0792   -2.5000    0.0000 O   0  0  0  0  0  0  0  0  0  0  0  0
    0.8000   -2.5000    0.0000 O   0  0  0  0  0  0  0  0  0  0  0  0
    0.0875   -3.7375    0.0000 O   0  0  0  0  0  0  0  0  0  0  0  0
    2.2250   -2.5000    0.0000 C   0  0  0  0  0  0  0  0  0  0  0  0
    8.6542   -4.5625    0.0000 O   0  0  0  0  0  0  0  0  0  0  0  0
    6.5125   -0.8500    0.0000 O   0  0  0  0  0  0  0  0  0  0  0  0
    6.5125   -3.3250    0.0000 C   0  0  2  0  0  0  0  0  0  0  0  0
    7.9417   -0.8500    0.0000 N   0  0  0  0  0  0  0  0  0  0  0  0
    7.2292   -2.0875    0.0000 C   0  0  0  0  0  0  0  0  0  0  0  0
   -0.6333   -3.3250    0.0000 C   0  0  0  0  0  0  0  0  0  0  0  0
    9.3667   -3.3167    0.0000 O   0  0  0  0  0  0  0  0  0  0  0  0
    6.6917   -4.8542    0.0000 C   0  0  0  0  0  0  0  0  0  0  0  0
    6.5125   -2.5000    0.0000 C   0  0  0  0  0  0  0  0  0  0  0  0
   -1.3458   -3.7375    0.0000 C   0  0  0  0  0  0  0  0  0  0  0  0
    2.9417   -2.0875    0.0000 C   0  0  0  0  0  0  0  0  0  0  0  0
   10.0792   -3.7375    0.0000 C   0  0  0  0  0  0  0  0  0  0  0  0
   -1.3458   -4.5542    0.0000 C   0  0  0  0  0  0  0  0  0  0  0  0
   -2.0583   -3.3167    0.0000 C   0  0  0  0  0  0  0  0  0  0  0  0
    3.7042   -2.4000    0.0000 C   0  0  0  0  0  0  0  0  0  0  0  0
    2.7250   -1.2875    0.0000 C   0  0  0  0  0  0  0  0  0  0  0  0
   10.8000   -3.3250    0.0000 C   0  0  0  0  0  0  0  0  0  0  0  0
   -2.0500   -4.9667    0.0000 C   0  0  0  0  0  0  0  0  0  0  0  0
   -2.7708   -3.7292    0.0000 C   0  0  0  0  0  0  0  0  0  0  0  0
   -2.7708   -4.5542    0.0000 C   0  0  0  0  0  0  0  0  0  0  0  0
  2  1  1  0  0  0  0
  3  8  1  0  0  0  0
  4  1  1  0  0  0  0
  5  6  1  0  0  0  0
  6  2  1  6  0  0  0
  7  1  2  0  0  0  0
  8  6  1  0  0  0  0
  9 11  1  0  0  0  0
 10  3  1  0  0  0  0
 11 10  1  0  0  0  0
 12  5  1  0  0  0  0
 13  7  1  0  0  0  0
 14 15  1  0  0  0  0
 15 18  2  0  0  0  0
 16  4  1  0  0  0  0
 17 28  1  0  0  0  0
 18 26  1  0  0  0  0
 19  3  2  0  0  0  0
 20  5  2  0  0  0  0
 21  9  2  0  0  0  0
 22  9  1  0  0  0  0
 10 23  1  1  0  0  0
 24 14  2  0  0  0  0
 25 17  2  0  0  0  0
 26 12  1  0  0  0  0
 27 17  1  0  0  0  0
 28 32  1  0  0  0  0
 29 22  1  0  0  0  0
 30 14  1  0  0  0  0
 31  4  1  0  0  0  0
 26 32  1  1  0  0  0
 33 29  1  0  0  0  0
 34 23  1  0  0  0  0
 35 30  1  0  0  0  0
 36 33  1  0  0  0  0
 37 33  2  0  0  0  0
 38 34  1  0  0  0  0
 39 34  1  0  0  0  0
 40 35  1  0  0  0  0
 41 36  2  0  0  0  0
 42 37  1  0  0  0  0
 43 42  2  0  0  0  0
 13 16  2  0  0  0  0
 41 43  1  0  0  0  0
M  END
>  <Mol Weight>
598.6905

>  <Formula>
C30H42N6O7

>  <chembl_id>
CHEMBL1179704

$$$$

  Mrv0541 06201412482D          

 42 47  0  0  0  0            999 V2000
   -1.2073   -1.5658    0.0000 C   0  0  0  0  0  0  0  0  0  0  0  0
   -1.2069   -2.3909    0.0000 C   0  0  0  0  0  0  0  0  0  0  0  0
   -2.0353   -2.3865    0.0000 C   0  0  0  0  0  0  0  0  0  0  0  0
   -0.3881   -2.3906    0.0000 C   0  0  0  0  0  0  0  0  0  0  0  0
   -1.1970   -3.2096    0.0000 C   0  0  0  0  0  0  0  0  0  0  0  0
    0.0197   -3.1020    0.0000 C   0  0  0  0  0  0  0  0  0  0  0  0
    0.8377   -3.1021    0.0000 C   0  0  0  0  0  0  0  0  0  0  0  0
    1.2478   -2.3923    0.0000 C   0  0  0  0  0  0  0  0  0  0  0  0
    0.8337   -1.6810    0.0000 C   0  0  0  0  0  0  0  0  0  0  0  0
    0.0171   -1.6844    0.0000 C   0  0  0  0  0  0  0  0  0  0  0  0
   -1.9021   -3.6248    0.0000 C   0  0  0  0  0  0  0  0  0  0  0  0
   -1.8925   -4.4428    0.0000 C   0  0  0  0  0  0  0  0  0  0  0  0
   -1.1780   -4.8444    0.0000 C   0  0  0  0  0  0  0  0  0  0  0  0
   -0.4715   -4.4220    0.0000 C   0  0  0  0  0  0  0  0  0  0  0  0
   -0.4847   -3.6054    0.0000 C   0  0  0  0  0  0  0  0  0  0  0  0
   -2.4439   -1.6645    0.0000 C   0  0  0  0  0  0  0  0  0  0  0  0
   -3.2716   -1.6597    0.0000 C   0  0  0  0  0  0  0  0  0  0  0  0
   -3.6905   -2.3755    0.0000 C   0  0  0  0  0  0  0  0  0  0  0  0
   -3.2756   -3.0977    0.0000 C   0  0  0  0  0  0  0  0  0  0  0  0
   -2.4493   -3.0989    0.0000 C   0  0  0  0  0  0  0  0  0  0  0  0
    0.1757    0.1560    0.0000 C   0  0  2  0  0  0  0  0  0  0  0  0
   -0.0800    0.9387    0.0000 C   0  0  0  0  0  0  0  0  0  0  0  0
   -0.9058    0.9387    0.0000 C   0  0  0  0  0  0  0  0  0  0  0  0
   -1.1575    0.1560    0.0000 C   0  0  0  0  0  0  0  0  0  0  0  0
   -0.4930   -0.3312    0.0000 N   0  0  0  0  0  0  0  0  0  0  0  0
   -0.4930   -1.1530    0.0000 C   0  0  0  0  0  0  0  0  0  0  0  0
    0.9066    0.5887    0.0000 C   0  0  0  0  0  0  0  0  0  0  0  0
    1.6471    0.1719    0.0000 N   0  0  0  0  0  0  0  0  0  0  0  0
    0.8973    1.4384    0.0000 O   0  0  0  0  0  0  0  0  0  0  0  0
    1.7448   -0.6687    0.0000 C   0  0  0  0  0  0  0  0  0  0  0  0
    2.5779   -0.8362    0.0000 C   0  0  0  0  0  0  0  0  0  0  0  0
    2.9948   -0.0956    0.0000 C   0  0  0  0  0  0  0  0  0  0  0  0
    2.4192    0.5296    0.0000 C   0  0  2  0  0  0  0  0  0  0  0  0
    3.0151    1.1339    0.0000 C   0  0  0  0  0  0  0  0  0  0  0  0
    3.8374    0.9198    0.0000 N   0  0  0  0  0  0  0  0  0  0  0  0
    2.7894    1.9532    0.0000 O   0  0  0  0  0  0  0  0  0  0  0  0
    4.0603    0.1007    0.0000 C   0  0  0  0  0  0  0  0  0  0  0  0
    4.8784   -0.1145    0.0000 N   0  0  0  0  0  0  0  0  0  0  0  0
    5.4786    0.4879    0.0000 C   0  0  0  0  0  0  0  0  0  0  0  0
    5.2546    1.3086    0.0000 C   0  0  0  0  0  0  0  0  0  0  0  0
    4.4305    1.5271    0.0000 C   0  0  0  0  0  0  0  0  0  0  0  0
    0.3253   -1.1510    0.0000 O   0  0  0  0  0  0  0  0  0  0  0  0
 12 13  2  0  0  0  0
  2  3  1  0  0  0  0
 13 14  1  0  0  0  0
  6  7  1  0  0  0  0
 14 15  2  0  0  0  0
 15  5  1  0  0  0  0
  3 16  2  0  0  0  0
  7  8  2  0  0  0  0
 16 17  1  0  0  0  0
  2  4  1  0  0  0  0
 17 18  2  0  0  0  0
  8  9  1  0  0  0  0
 18 19  1  0  0  0  0
  1  2  1  0  0  0  0
 19 20  2  0  0  0  0
 24 25  1  0  0  0  0
 25 21  1  0  0  0  0
 25 26  1  0  0  0  0
 26  1  1  0  0  0  0
 21 27  1  1  0  0  0
 27 28  1  0  0  0  0
 27 29  2  0  0  0  0
 28 30  1  0  0  0  0
 30 31  1  0  0  0  0
 31 32  1  0  0  0  0
 32 33  1  0  0  0  0
 33 28  1  0  0  0  0
 33 34  1  1  0  0  0
 34 35  1  0  0  0  0
 34 36  2  0  0  0  0
 35 37  1  0  0  0  0
 21 22  1  0  0  0  0
 22 23  1  0  0  0  0
 23 24  1  0  0  0  0
 35 41  1  0  0  0  0
 37 38  1  0  0  0  0
 38 39  1  0  0  0  0
 39 40  1  0  0  0  0
 40 41  1  0  0  0  0
 20  3  1  0  0  0  0
 26 42  2  0  0  0  0
  9 10  2  0  0  0  0
 10  4  1  0  0  0  0
  2  5  1  0  0  0  0
  5 11  2  0  0  0  0
 11 12  1  0  0  0  0
  4  6  2  0  0  0  0
M  END
>  <Mol Weight>
564.7171

>  <Formula>
C35H40N4O3

>  <chembl_id>
CHEMBL1185051

$$$$

  Mrv0541 06201412482D          

 47 52  0  0  0  0            999 V2000
    9.6625  -11.2958    0.0000 C   0  0  0  0  0  0  0  0  0  0  0  0
    9.6625  -12.1208    0.0000 C   0  0  1  0  0  0  0  0  0  0  0  0
   10.3745  -12.5292    0.0000 C   0  0  0  0  0  0  0  0  0  0  0  0
   10.3745  -10.8792    0.0000 C   0  0  0  0  0  0  0  0  0  0  0  0
    8.9486  -12.5344    0.0000 O   0  0  0  0  0  0  0  0  0  0  0  0
    9.9542  -13.2417    0.0000 C   0  0  0  0  0  0  0  0  0  0  0  0
   10.7792  -13.2417    0.0000 C   0  0  0  0  0  0  0  0  0  0  0  0
   11.0865  -11.2958    0.0000 C   0  0  2  0  0  0  0  0  0  0  0  0
   11.7986  -12.5301    0.0000 C   0  0  0  0  0  0  0  0  0  0  0  0
   12.5132  -12.1190    0.0000 C   0  0  0  0  0  0  0  0  0  0  0  0
   11.0792  -10.4708    0.0000 C   0  0  0  0  0  0  0  0  0  0  0  0
   12.5141  -11.2947    0.0000 C   0  0  1  0  0  0  0  0  0  0  0  0
   12.5128   -9.6402    0.0000 C   0  0  0  0  0  0  0  0  0  0  0  0
   11.7928  -10.0538    0.0000 C   0  0  0  0  0  0  0  0  0  0  0  0
   12.5083  -10.4667    0.0000 C   0  0  0  0  0  0  0  0  0  0  0  0
   13.2247  -10.8834    0.0000 C   0  0  1  0  0  0  0  0  0  0  0  0
   13.9355  -11.3002    0.0000 C   0  0  0  0  0  0  0  0  0  0  0  0
   14.6565  -10.8931    0.0000 C   0  0  0  0  0  0  0  0  0  0  0  0
   13.2167  -11.7083    0.0000 C   0  0  0  0  0  0  0  0  0  0  0  0
   14.6573  -10.0644    0.0000 C   0  0  2  0  0  0  0  0  0  0  0  0
   15.2776   -9.5189    0.0000 C   0  0  0  0  0  0  0  0  0  0  0  0
   14.9505   -8.7604    0.0000 C   0  0  0  0  0  0  0  0  0  0  0  0
   14.1281   -8.8372    0.0000 C   0  0  1  0  0  0  0  0  0  0  0  0
   13.5833   -8.2177    0.0000 C   0  0  0  0  0  0  0  0  0  0  0  0
   13.8474   -7.4361    0.0000 C   0  0  0  0  0  0  0  0  0  0  0  0
   12.7743   -8.3797    0.0000 C   0  0  0  0  0  0  0  0  0  0  0  0
   15.3667  -10.4750    0.0000 C   0  0  0  0  0  0  0  0  0  0  0  0
   16.0816  -10.0633    0.0000 O   0  0  0  0  0  0  0  0  0  0  0  0
    8.2336  -12.1229    0.0000 C   0  0  0  0  0  0  0  0  0  0  0  0
    7.5197  -12.5364    0.0000 N   0  0  0  0  0  0  0  0  0  0  0  0
    8.2324  -11.2979    0.0000 O   0  0  0  0  0  0  0  0  0  0  0  0
    6.7630  -12.2046    0.0000 C   0  0  0  0  0  0  0  0  0  0  0  0
    6.2131  -12.8185    0.0000 N   0  0  0  0  0  0  0  0  0  0  0  0
    6.6255  -13.5324    0.0000 C   0  0  0  0  0  0  0  0  0  0  0  0
    7.4321  -13.3596    0.0000 C   0  0  0  0  0  0  0  0  0  0  0  0
    6.5882  -11.3983    0.0000 C   0  0  0  0  0  0  0  0  0  0  0  0
   16.7956  -10.4766    0.0000 C   0  0  0  0  0  0  0  0  0  0  0  0
   17.5105  -10.0649    0.0000 C   0  0  0  0  0  0  0  0  0  0  0  0
   16.7947  -11.3016    0.0000 O   0  0  0  0  0  0  0  0  0  0  0  0
   13.2304  -10.0548    0.0000 C   0  0  1  0  0  0  0  0  0  0  0  0
   13.2304   -9.2298    0.0000 H   0  0  0  0  0  0  0  0  0  0  0  0
   13.9468   -9.6430    0.0000 C   0  0  2  0  0  0  0  0  0  0  0  0
   13.9468  -10.4680    0.0000 H   0  0  0  0  0  0  0  0  0  0  0  0
   11.7965  -10.8801    0.0000 C   0  0  2  0  0  0  0  0  0  0  0  0
   11.7965  -11.7051    0.0000 H   0  0  0  0  0  0  0  0  0  0  0  0
   11.0876  -12.1208    0.0000 C   0  0  1  0  0  0  0  0  0  0  0  0
   11.0876  -12.9458    0.0000 H   0  0  0  0  0  0  0  0  0  0  0  0
 40 42  1  0  0  0  0
 16 17  1  0  0  0  0
 17 18  1  0  0  0  0
 18 20  1  0  0  0  0
  8 44  1  0  0  0  0
 16 19  1  6  0  0  0
 42 20  1  0  0  0  0
 46  9  1  0  0  0  0
  9 10  1  0  0  0  0
 10 12  1  0  0  0  0
  2  5  1  1  0  0  0
  8 11  1  1  0  0  0
 20 21  1  0  0  0  0
 21 22  1  0  0  0  0
 22 23  1  0  0  0  0
 23 42  1  0  0  0  0
 44 12  1  0  0  0  0
 23 24  1  6  0  0  0
  1  2  1  0  0  0  0
 24 25  1  0  0  0  0
  3  6  1  0  0  0  0
 24 26  2  0  0  0  0
  1  4  1  0  0  0  0
 20 27  1  1  0  0  0
  3  7  1  0  0  0  0
 27 28  1  0  0  0  0
 44 14  1  0  0  0  0
  5 29  1  0  0  0  0
 12 16  1  0  0  0  0
 29 30  1  0  0  0  0
 40 13  1  0  0  0  0
 29 31  2  0  0  0  0
 30 32  1  0  0  0  0
 13 14  1  0  0  0  0
  8 46  1  0  0  0  0
 12 15  1  1  0  0  0
 40 16  1  0  0  0  0
 32 33  2  0  0  0  0
 33 34  1  0  0  0  0
 34 35  2  0  0  0  0
 35 30  1  0  0  0  0
  2  3  1  0  0  0  0
 32 36  1  0  0  0  0
  3 46  1  0  0  0  0
 28 37  1  0  0  0  0
  8  4  1  0  0  0  0
 37 38  1  0  0  0  0
 37 39  2  0  0  0  0
 40 41  1  1  0  0  0
 42 43  1  6  0  0  0
 44 45  1  6  0  0  0
 46 47  1  6  0  0  0
M  END
>  <Mol Weight>
592.8515

>  <Formula>
C37H56N2O4

>  <chembl_id>
CHEMBL1163148

$$$$

  Mrv0541 06201412482D          

 42 45  0  0  0  0            999 V2000
   -0.5042  -11.6500    0.0000 C   0  0  0  0  0  0  0  0  0  0  0  0
   -1.2208  -11.2375    0.0000 C   0  0  0  0  0  0  0  0  0  0  0  0
   -1.9324  -11.6496    0.0000 C   0  0  0  0  0  0  0  0  0  0  0  0
   -1.9336  -12.4759    0.0000 N   0  0  0  0  0  0  0  0  0  0  0  0
   -1.2170  -12.8884    0.0000 C   0  0  0  0  0  0  0  0  0  0  0  0
   -0.4991  -12.4746    0.0000 C   0  0  0  0  0  0  0  0  0  0  0  0
   -1.2098   -9.5875    0.0000 C   0  0  0  0  0  0  0  0  0  0  0  0
   -1.2109  -10.4148    0.0000 C   0  0  0  0  0  0  0  0  0  0  0  0
   -0.4961  -10.8277    0.0000 C   0  0  0  0  0  0  0  0  0  0  0  0
    0.2203  -10.4144    0.0000 C   0  0  0  0  0  0  0  0  0  0  0  0
    0.2175   -9.5838    0.0000 C   0  0  0  0  0  0  0  0  0  0  0  0
   -0.4979   -9.1747    0.0000 C   0  0  0  0  0  0  0  0  0  0  0  0
    0.2085  -12.0655    0.0000 C   0  0  0  0  0  0  0  0  0  0  0  0
    0.9248  -11.6561    0.0000 N   0  0  0  0  0  0  0  0  0  0  0  0
    1.6375  -12.0716    0.0000 C   0  0  0  0  0  0  0  0  0  0  0  0
    2.3537  -11.6621    0.0000 N   0  0  0  0  0  0  0  0  0  0  0  0
    1.6340  -12.8966    0.0000 O   0  0  0  0  0  0  0  0  0  0  0  0
    3.0664  -12.0776    0.0000 C   0  0  0  0  0  0  0  0  0  0  0  0
    3.0604  -12.9011    0.0000 C   0  0  0  0  0  0  0  0  0  0  0  0
    3.7723  -13.3165    0.0000 C   0  0  0  0  0  0  0  0  0  0  0  0
    4.4895  -12.9070    0.0000 C   0  0  0  0  0  0  0  0  0  0  0  0
    4.4903  -12.0777    0.0000 C   0  0  0  0  0  0  0  0  0  0  0  0
    3.7779  -11.6660    0.0000 C   0  0  0  0  0  0  0  0  0  0  0  0
    3.7776  -10.8410    0.0000 C   0  0  0  0  0  0  0  0  0  0  0  0
    4.4920  -10.4283    0.0000 C   0  0  0  0  0  0  0  0  0  0  0  0
    3.0631  -10.4287    0.0000 C   0  0  0  0  0  0  0  0  0  0  0  0
    2.3435  -13.3093    0.0000 C   0  0  0  0  0  0  0  0  0  0  0  0
    1.5167  -13.3042    0.0000 C   0  0  0  0  0  0  0  0  0  0  0  0
    2.5521  -14.1075    0.0000 C   0  0  0  0  0  0  0  0  0  0  0  0
   -2.6481  -12.8884    0.0000 C   0  0  0  0  0  0  0  0  0  0  0  0
   -3.3604  -12.4717    0.0000 C   0  0  0  0  0  0  0  0  0  0  0  0
   -4.0744  -12.8835    0.0000 C   0  0  0  0  0  0  0  0  0  0  0  0
   -4.0749  -13.7094    0.0000 C   0  0  0  0  0  0  0  0  0  0  0  0
   -3.3555  -14.1217    0.0000 C   0  0  0  0  0  0  0  0  0  0  0  0
   -2.6444  -13.7076    0.0000 C   0  0  0  0  0  0  0  0  0  0  0  0
   -1.9282  -14.1171    0.0000 O   0  0  0  0  0  0  0  0  0  0  0  0
   -1.9248  -14.9421    0.0000 C   0  0  0  0  0  0  0  0  0  0  0  0
    5.2027  -13.3216    0.0000 N   0  0  0  0  0  0  0  0  0  0  0  0
   -1.9243   -9.1751    0.0000 C   0  0  0  0  0  0  0  0  0  0  0  0
   -2.6417   -8.7625    0.0000 F   0  0  0  0  0  0  0  0  0  0  0  0
   -1.5125   -8.4603    0.0000 F   0  0  0  0  0  0  0  0  0  0  0  0
   -2.3340   -9.8912    0.0000 F   0  0  0  0  0  0  0  0  0  0  0  0
  3  4  1  0  0  0  0
 20 21  2  0  0  0  0
 10 11  1  0  0  0  0
 21 22  1  0  0  0  0
  4  5  1  0  0  0  0
 22 23  2  0  0  0  0
 23 18  1  0  0  0  0
 11 12  2  0  0  0  0
 23 24  1  0  0  0  0
 12  7  1  0  0  0  0
 24 25  1  0  0  0  0
  9  1  1  0  0  0  0
 24 26  1  0  0  0  0
  5  6  1  0  0  0  0
 19 27  1  0  0  0  0
  1 13  1  0  0  0  0
 27 28  1  0  0  0  0
 27 29  1  0  0  0  0
 13 14  1  0  0  0  0
  4 30  1  0  0  0  0
  1  2  1  0  0  0  0
 30 31  2  0  0  0  0
 14 15  1  0  0  0  0
 31 32  1  0  0  0  0
  7  8  2  0  0  0  0
 32 33  2  0  0  0  0
 15 16  1  0  0  0  0
 33 34  1  0  0  0  0
  1  6  1  0  0  0  0
 34 35  2  0  0  0  0
 35 30  1  0  0  0  0
 15 17  2  0  0  0  0
 35 36  1  0  0  0  0
  8  9  1  0  0  0  0
 36 37  1  0  0  0  0
 16 18  1  0  0  0  0
 21 38  1  0  0  0  0
  2  3  1  0  0  0  0
  7 39  1  0  0  0  0
 18 19  2  0  0  0  0
 39 40  1  0  0  0  0
  9 10  2  0  0  0  0
 39 41  1  0  0  0  0
 19 20  1  0  0  0  0
 39 42  1  0  0  0  0
M  END
>  <Mol Weight>
582.6994

>  <Formula>
C33H41F3N4O2

>  <chembl_id>
CHEMBL1186195

$$$$

  Mrv0541 06201412482D          

 42 44  0  0  0  0            999 V2000
    2.6667   -3.7917    0.0000 N   0  0  0  0  0  0  0  0  0  0  0  0
    1.9542   -4.2042    0.0000 C   0  0  0  0  0  0  0  0  0  0  0  0
    1.2417   -3.8000    0.0000 C   0  0  1  0  0  0  0  0  0  0  0  0
   10.8750   -0.8542    0.0000 C   0  0  0  0  0  0  0  0  0  0  0  0
    3.4167   -4.1167    0.0000 C   0  0  2  0  0  0  0  0  0  0  0  0
   10.0500   -0.8542    0.0000 C   0  0  0  0  0  0  0  0  0  0  0  0
    4.1250   -4.5292    0.0000 C   0  0  0  0  0  0  0  0  0  0  0  0
    1.2292   -2.9750    0.0000 C   0  0  0  0  0  0  0  0  0  0  0  0
    8.8167   -4.2125    0.0000 C   0  0  0  0  0  0  0  0  0  0  0  0
    4.8375   -4.1125    0.0000 N   0  0  0  0  0  0  0  0  0  0  0  0
    1.9500   -5.0292    0.0000 O   0  0  0  0  0  0  0  0  0  0  0  0
    8.0000   -4.2125    0.0000 C   0  0  0  0  0  0  0  0  0  0  0  0
    9.4000   -3.6250    0.0000 N   0  0  0  0  0  0  0  0  0  0  0  0
    9.6375   -1.5667    0.0000 O   0  0  0  0  0  0  0  0  0  0  0  0
    9.6375   -0.1417    0.0000 O   0  0  0  0  0  0  0  0  0  0  0  0
    4.1167   -5.3542    0.0000 O   0  0  0  0  0  0  0  0  0  0  0  0
    1.8167   -2.3875    0.0000 C   0  0  0  0  0  0  0  0  0  0  0  0
    0.4667   -2.6625    0.0000 C   0  0  0  0  0  0  0  0  0  0  0  0
    0.5292   -4.2125    0.0000 N   0  0  0  0  0  0  0  0  0  0  0  0
   10.6625   -1.6542    0.0000 F   0  0  0  0  0  0  0  0  0  0  0  0
   11.2875   -1.5667    0.0000 F   0  0  0  0  0  0  0  0  0  0  0  0
   11.2875   -0.1417    0.0000 F   0  0  0  0  0  0  0  0  0  0  0  0
    7.6250   -4.9500    0.0000 C   0  0  0  0  0  0  0  0  0  0  0  0
    7.5292   -3.5167    0.0000 C   0  0  0  0  0  0  0  0  0  0  0  0
    9.4042   -4.7917    0.0000 N   0  0  0  0  0  0  0  0  0  0  0  0
    2.7500   -2.9792    0.0000 C   0  0  0  0  0  0  0  0  0  0  0  0
    5.5500   -4.5250    0.0000 C   0  0  0  0  0  0  0  0  0  0  0  0
    6.3417   -4.3125    0.0000 C   0  0  0  0  0  0  0  0  0  0  0  0
    6.8042   -5.0000    0.0000 C   0  0  0  0  0  0  0  0  0  0  0  0
    6.7125   -3.5750    0.0000 C   0  0  0  0  0  0  0  0  0  0  0  0
    3.9667   -3.4917    0.0000 C   0  0  0  0  0  0  0  0  0  0  0  0
    3.5500   -2.8000    0.0000 C   0  0  0  0  0  0  0  0  0  0  0  0
    2.6167   -2.6000    0.0000 C   0  0  0  0  0  0  0  0  0  0  0  0
    1.6000   -1.5917    0.0000 C   0  0  0  0  0  0  0  0  0  0  0  0
    0.3625   -1.8417    0.0000 C   0  0  0  0  0  0  0  0  0  0  0  0
   -0.1708   -3.1667    0.0000 C   0  0  0  0  0  0  0  0  0  0  0  0
    2.1792   -1.0042    0.0000 C   0  0  0  0  0  0  0  0  0  0  0  0
   -0.4000   -1.5292    0.0000 C   0  0  0  0  0  0  0  0  0  0  0  0
   -0.9375   -2.8625    0.0000 C   0  0  0  0  0  0  0  0  0  0  0  0
    3.2042   -2.0125    0.0000 C   0  0  0  0  0  0  0  0  0  0  0  0
    2.9875   -1.2125    0.0000 C   0  0  0  0  0  0  0  0  0  0  0  0
   -1.0583   -2.0417    0.0000 C   0  0  0  0  0  0  0  0  0  0  0  0
  2  1  1  0  0  0  0
  3  2  1  0  0  0  0
  5  1  1  0  0  0  0
  6  4  1  0  0  0  0
  5  7  1  1  0  0  0
  3  8  1  6  0  0  0
  9 12  1  0  0  0  0
 10  7  1  0  0  0  0
 11  2  2  0  0  0  0
 12 23  2  0  0  0  0
 13  9  2  0  0  0  0
 14  6  1  0  0  0  0
 15  6  2  0  0  0  0
 16  7  2  0  0  0  0
 17  8  1  0  0  0  0
 18  8  1  0  0  0  0
 19  3  1  0  0  0  0
 20  4  1  0  0  0  0
 21  4  1  0  0  0  0
 22  4  1  0  0  0  0
 23 29  1  0  0  0  0
 24 30  2  0  0  0  0
 25  9  1  0  0  0  0
 26  1  1  0  0  0  0
 27 10  1  0  0  0  0
 28 27  1  0  0  0  0
 29 28  2  0  0  0  0
 30 28  1  0  0  0  0
 31  5  1  0  0  0  0
 32 26  1  0  0  0  0
 33 17  2  0  0  0  0
 34 17  1  0  0  0  0
 35 18  2  0  0  0  0
 36 18  1  0  0  0  0
 37 34  2  0  0  0  0
 38 35  1  0  0  0  0
 39 36  2  0  0  0  0
 40 33  1  0  0  0  0
 41 40  2  0  0  0  0
 42 39  1  0  0  0  0
 32 31  1  0  0  0  0
 24 12  1  0  0  0  0
 42 38  2  0  0  0  0
 37 41  1  0  0  0  0
M  END
>  <Mol Weight>
583.6014

>  <Formula>
C30H32F3N5O4

>  <chembl_id>
CHEMBL1159694

$$$$

  Mrv0541 06201412482D          

 42 47  0  0  0  0            999 V2000
   -1.0568   -1.9054    0.0000 C   0  0  0  0  0  0  0  0  0  0  0  0
   -1.0564   -2.7305    0.0000 C   0  0  0  0  0  0  0  0  0  0  0  0
   -1.8848   -2.7261    0.0000 C   0  0  0  0  0  0  0  0  0  0  0  0
   -0.2377   -2.7302    0.0000 C   0  0  0  0  0  0  0  0  0  0  0  0
   -1.0464   -3.5492    0.0000 C   0  0  0  0  0  0  0  0  0  0  0  0
    0.1700   -3.4415    0.0000 C   0  0  0  0  0  0  0  0  0  0  0  0
    0.9880   -3.4416    0.0000 C   0  0  0  0  0  0  0  0  0  0  0  0
    1.3980   -2.7319    0.0000 C   0  0  0  0  0  0  0  0  0  0  0  0
    0.9841   -2.0206    0.0000 C   0  0  0  0  0  0  0  0  0  0  0  0
    0.1674   -2.0240    0.0000 C   0  0  0  0  0  0  0  0  0  0  0  0
   -1.7516   -3.9643    0.0000 C   0  0  0  0  0  0  0  0  0  0  0  0
   -1.7420   -4.7823    0.0000 C   0  0  0  0  0  0  0  0  0  0  0  0
   -1.0275   -5.1838    0.0000 C   0  0  0  0  0  0  0  0  0  0  0  0
   -0.3212   -4.7615    0.0000 C   0  0  0  0  0  0  0  0  0  0  0  0
   -0.3342   -3.9449    0.0000 C   0  0  0  0  0  0  0  0  0  0  0  0
   -2.2934   -2.0041    0.0000 C   0  0  0  0  0  0  0  0  0  0  0  0
   -3.1210   -1.9993    0.0000 C   0  0  0  0  0  0  0  0  0  0  0  0
   -3.5399   -2.7151    0.0000 C   0  0  0  0  0  0  0  0  0  0  0  0
   -3.1250   -3.4372    0.0000 C   0  0  0  0  0  0  0  0  0  0  0  0
   -2.2987   -3.4384    0.0000 C   0  0  0  0  0  0  0  0  0  0  0  0
    0.3262   -0.1836    0.0000 C   0  0  2  0  0  0  0  0  0  0  0  0
    0.0704    0.5988    0.0000 C   0  0  0  0  0  0  0  0  0  0  0  0
   -0.7553    0.5988    0.0000 C   0  0  0  0  0  0  0  0  0  0  0  0
   -1.0070   -0.1836    0.0000 C   0  0  0  0  0  0  0  0  0  0  0  0
   -0.3425   -0.6709    0.0000 N   0  0  0  0  0  0  0  0  0  0  0  0
   -0.3425   -1.4926    0.0000 C   0  0  0  0  0  0  0  0  0  0  0  0
    1.0569    0.2490    0.0000 C   0  0  0  0  0  0  0  0  0  0  0  0
    1.7975   -0.1678    0.0000 N   0  0  0  0  0  0  0  0  0  0  0  0
    1.0475    1.0986    0.0000 O   0  0  0  0  0  0  0  0  0  0  0  0
    1.8949   -1.0083    0.0000 C   0  0  0  0  0  0  0  0  0  0  0  0
    2.7280   -1.1759    0.0000 C   0  0  0  0  0  0  0  0  0  0  0  0
    3.1448   -0.4354    0.0000 C   0  0  0  0  0  0  0  0  0  0  0  0
    2.5693    0.1898    0.0000 C   0  0  2  0  0  0  0  0  0  0  0  0
    3.1653    0.7940    0.0000 C   0  0  0  0  0  0  0  0  0  0  0  0
    3.9875    0.5800    0.0000 N   0  0  0  0  0  0  0  0  0  0  0  0
    2.9396    1.6133    0.0000 O   0  0  0  0  0  0  0  0  0  0  0  0
    4.2993   -0.2098    0.0000 C   0  0  0  0  0  0  0  0  0  0  0  0
    5.1475   -0.1593    0.0000 C   0  0  0  0  0  0  0  0  0  0  0  0
    5.3616    0.6630    0.0000 C   0  0  0  0  0  0  0  0  0  0  0  0
    4.6458    1.1206    0.0000 C   0  0  0  0  0  0  0  0  0  0  0  0
    6.1528    0.9732    0.0000 N   0  0  0  0  0  0  0  0  0  0  0  0
    0.4754   -1.4887    0.0000 O   0  0  0  0  0  0  0  0  0  0  0  0
 12 13  2  0  0  0  0
  2  3  1  0  0  0  0
 13 14  1  0  0  0  0
  6  7  1  0  0  0  0
 14 15  2  0  0  0  0
 15  5  1  0  0  0  0
  3 16  2  0  0  0  0
  7  8  2  0  0  0  0
 16 17  1  0  0  0  0
  2  4  1  0  0  0  0
 17 18  2  0  0  0  0
  8  9  1  0  0  0  0
 18 19  1  0  0  0  0
  1  2  1  0  0  0  0
 19 20  2  0  0  0  0
 24 25  1  0  0  0  0
 25 21  1  0  0  0  0
 25 26  1  0  0  0  0
 26  1  1  0  0  0  0
 21 27  1  1  0  0  0
 27 28  1  0  0  0  0
 27 29  2  0  0  0  0
 28 30  1  0  0  0  0
 30 31  1  0  0  0  0
 31 32  1  0  0  0  0
 32 33  1  0  0  0  0
 33 28  1  0  0  0  0
 33 34  1  1  0  0  0
 34 35  1  0  0  0  0
 34 36  2  0  0  0  0
 35 37  1  0  0  0  0
 21 22  1  0  0  0  0
 22 23  1  0  0  0  0
 37 38  1  0  0  0  0
 38 39  1  0  0  0  0
 39 40  1  0  0  0  0
 40 35  1  0  0  0  0
 23 24  1  0  0  0  0
 39 41  1  0  0  0  0
 20  3  1  0  0  0  0
 26 42  2  0  0  0  0
  9 10  2  0  0  0  0
 10  4  1  0  0  0  0
  2  5  1  0  0  0  0
  5 11  2  0  0  0  0
 11 12  1  0  0  0  0
  4  6  2  0  0  0  0
M  END
>  <Mol Weight>
564.7171

>  <Formula>
C35H40N4O3

>  <chembl_id>
CHEMBL1184870

$$$$

  Mrv0541 06201412482D          

 43 48  0  0  0  0            999 V2000
    3.4875  -13.9861    0.0000 C   0  0  0  0  0  0  0  0  0  0  0  0
    4.2068  -13.5728    0.0000 C   0  0  0  0  0  0  0  0  0  0  0  0
    4.2036  -12.7416    0.0000 C   0  0  0  0  0  0  0  0  0  0  0  0
    3.4855  -12.3329    0.0000 C   0  0  0  0  0  0  0  0  0  0  0  0
    2.1097  -14.1083    0.0000 C   0  0  0  0  0  0  0  0  0  0  0  0
    1.2255  -12.3734    0.0000 C   0  0  0  0  0  0  0  0  0  0  0  0
    2.0689  -12.1797    0.0000 N   0  0  0  0  0  0  0  0  0  0  0  0
    2.7756  -12.7417    0.0000 C   0  0  0  0  0  0  0  0  0  0  0  0
    2.7745  -13.5732    0.0000 C   0  0  0  0  0  0  0  0  0  0  0  0
    4.9216  -13.9846    0.0000 O   0  0  0  0  0  0  0  0  0  0  0  0
    5.6356  -13.5714    0.0000 C   0  0  0  0  0  0  0  0  0  0  0  0
    4.9160  -12.3256    0.0000 O   0  0  0  0  0  0  0  0  0  0  0  0
    5.6325  -12.7346    0.0000 C   0  0  0  0  0  0  0  0  0  0  0  0
    6.3449  -12.3186    0.0000 C   0  0  0  0  0  0  0  0  0  0  0  0
    7.0614  -12.7276    0.0000 C   0  0  0  0  0  0  0  0  0  0  0  0
    7.7737  -12.3114    0.0000 O   0  0  0  0  0  0  0  0  0  0  0  0
    8.4902  -12.7204    0.0000 C   0  0  0  0  0  0  0  0  0  0  0  0
    8.4894  -13.5445    0.0000 C   0  0  0  0  0  0  0  0  0  0  0  0
    9.2051  -13.9533    0.0000 C   0  0  0  0  0  0  0  0  0  0  0  0
    9.1955  -12.3029    0.0000 C   0  0  0  0  0  0  0  0  0  0  0  0
    7.7758  -13.9583    0.0000 O   0  0  0  0  0  0  0  0  0  0  0  0
    7.0606  -13.5470    0.0000 C   0  0  0  0  0  0  0  0  0  0  0  0
   11.2704  -12.3908    0.0000 C   0  0  0  0  0  0  0  0  0  0  0  0
   10.5472  -14.0252    0.0000 C   0  0  0  0  0  0  0  0  0  0  0  0
    9.9208  -13.5369    0.0000 C   0  0  0  0  0  0  0  0  0  0  0  0
    9.9117  -12.7081    0.0000 C   0  0  0  0  0  0  0  0  0  0  0  0
   10.5044  -12.2273    0.0000 N   0  0  0  0  0  0  0  0  0  0  0  0
   11.6484  -13.0713    0.0000 C   0  0  1  0  0  0  0  0  0  0  0  0
   11.3289  -13.8286    0.0000 N   0  0  0  0  0  0  0  0  0  0  0  0
   11.9504  -14.3666    0.0000 C   0  0  0  0  0  0  0  0  0  0  0  0
   12.6542  -13.9417    0.0000 C   0  0  0  0  0  0  0  0  0  0  0  0
   12.4674  -13.1412    0.0000 C   0  0  0  0  0  0  0  0  0  0  0  0
   10.3770  -14.8324    0.0000 O   0  0  0  0  0  0  0  0  0  0  0  0
    2.3146  -14.9074    0.0000 O   0  0  0  0  0  0  0  0  0  0  0  0
    1.2746  -13.9599    0.0000 N   0  0  0  0  0  0  0  0  0  0  0  0
    0.8570  -13.1636    0.0000 C   0  0  1  0  0  0  0  0  0  0  0  0
   -0.0296  -13.3148    0.0000 C   0  0  0  0  0  0  0  0  0  0  0  0
   -0.1597  -14.2047    0.0000 C   0  0  0  0  0  0  0  0  0  0  0  0
    0.6463  -14.6033    0.0000 C   0  0  0  0  0  0  0  0  0  0  0  0
    0.4125  -12.4066    0.0000 H   0  0  0  0  0  0  0  0  0  0  0  0
   12.0307  -12.3928    0.0000 H   0  0  0  0  0  0  0  0  0  0  0  0
   -0.9562  -14.6226    0.0000 C   0  0  0  0  0  0  0  0  0  0  0  0
   13.4143  -14.2623    0.0000 C   0  0  0  0  0  0  0  0  0  0  0  0
 26 20  1  0  0  0  0
 20 17  2  0  0  0  0
  6  7  2  0  0  0  0
 18 21  1  0  0  0  0
  4  8  1  0  0  0  0
 21 22  1  0  0  0  0
  2 10  1  0  0  0  0
  1  2  2  0  0  0  0
 10 11  1  0  0  0  0
  9  1  1  0  0  0  0
  3 12  1  0  0  0  0
 28 23  1  0  0  0  0
 29 24  1  0  0  0  0
 25 26  2  0  0  0  0
 26 27  1  0  0  0  0
 27 23  2  0  0  0  0
 24 25  1  0  0  0  0
 28 29  1  0  0  0  0
  2  3  1  0  0  0  0
 12 13  1  0  0  0  0
 13 14  1  0  0  0  0
  3  4  2  0  0  0  0
 29 30  1  0  0  0  0
 30 31  1  0  0  0  0
 31 32  1  0  0  0  0
 32 28  1  0  0  0  0
 14 15  1  0  0  0  0
 24 33  2  0  0  0  0
 35  5  1  0  0  0  0
  5 34  2  0  0  0  0
 35 36  1  0  0  0  0
 15 16  1  0  0  0  0
 36  6  1  0  0  0  0
 16 17  1  0  0  0  0
  7  8  1  0  0  0  0
 17 18  1  0  0  0  0
 36 37  1  0  0  0  0
 37 38  1  0  0  0  0
 38 39  1  0  0  0  0
 39 35  1  0  0  0  0
  8  9  2  0  0  0  0
 36 40  1  6  0  0  0
 18 19  2  0  0  0  0
 28 41  1  1  0  0  0
 19 25  1  0  0  0  0
 38 42  2  0  0  0  0
  9  5  1  0  0  0  0
 31 43  2  0  0  0  0
M  END
>  <Mol Weight>
556.609

>  <Formula>
C31H32N4O6

>  <chembl_id>
CHEMBL16498

$$$$

  Mrv0541 06201412482D          

 42 43  0  0  0  0            999 V2000
   11.6852  -27.6058    0.0000 C   0  0  0  0  0  0  0  0  0  0  0  0
   12.3968  -27.1885    0.0000 C   0  0  0  0  0  0  0  0  0  0  0  0
   13.1141  -27.5962    0.0000 N   0  0  0  0  0  0  0  0  0  0  0  0
   12.3913  -26.3635    0.0000 O   0  0  0  0  0  0  0  0  0  0  0  0
   13.8258  -27.1789    0.0000 C   0  0  2  0  0  0  0  0  0  0  0  0
   14.5430  -27.5866    0.0000 C   0  0  0  0  0  0  0  0  0  0  0  0
   13.8202  -26.3539    0.0000 C   0  0  0  0  0  0  0  0  0  0  0  0
   14.5319  -25.9366    0.0000 C   0  0  0  0  0  0  0  0  0  0  0  0
   15.2459  -26.3471    0.0000 C   0  0  0  0  0  0  0  0  0  0  0  0
   15.9542  -25.1079    0.0000 C   0  0  0  0  0  0  0  0  0  0  0  0
   15.2370  -24.6980    0.0000 C   0  0  0  0  0  0  0  0  0  0  0  0
   15.9554  -25.9333    0.0000 C   0  0  0  0  0  0  0  0  0  0  0  0
   14.5213  -25.1134    0.0000 C   0  0  0  0  0  0  0  0  0  0  0  0
   14.5485  -28.4116    0.0000 O   0  0  0  0  0  0  0  0  0  0  0  0
   15.2548  -27.1693    0.0000 N   0  0  0  0  0  0  0  0  0  0  0  0
   15.9720  -27.5770    0.0000 C   0  0  2  0  0  0  0  0  0  0  0  0
   16.6837  -27.1597    0.0000 C   0  0  0  0  0  0  0  0  0  0  0  0
   15.9776  -28.4020    0.0000 C   0  0  0  0  0  0  0  0  0  0  0  0
   16.6948  -28.8097    0.0000 O   0  0  0  0  0  0  0  0  0  0  0  0
   17.4010  -27.5675    0.0000 N   0  0  0  0  0  0  0  0  0  0  0  0
   16.6782  -26.3347    0.0000 O   0  0  0  0  0  0  0  0  0  0  0  0
   18.1126  -27.1501    0.0000 C   0  0  2  0  0  0  0  0  0  0  0  0
   18.8299  -27.5578    0.0000 C   0  0  0  0  0  0  0  0  0  0  0  0
   18.1071  -26.3251    0.0000 C   0  0  0  0  0  0  0  0  0  0  0  0
   18.8188  -25.9078    0.0000 C   0  0  0  0  0  0  0  0  0  0  0  0
   18.8132  -25.0828    0.0000 C   0  0  0  0  0  0  0  0  0  0  0  0
   19.5360  -26.3155    0.0000 C   0  0  0  0  0  0  0  0  0  0  0  0
   18.8354  -28.3828    0.0000 O   0  0  0  0  0  0  0  0  0  0  0  0
   19.5416  -27.1404    0.0000 O   0  0  0  0  0  0  0  0  0  0  0  0
   10.9679  -27.1981    0.0000 C   0  0  0  0  0  0  0  0  0  0  0  0
   10.2562  -27.6154    0.0000 C   0  0  0  0  0  0  0  0  0  0  0  0
    9.5428  -27.2051    0.0000 C   0  0  0  0  0  0  0  0  0  0  0  0
    8.8344  -28.4442    0.0000 C   0  0  0  0  0  0  0  0  0  0  0  0
    9.5516  -28.8540    0.0000 C   0  0  0  0  0  0  0  0  0  0  0  0
    8.8332  -27.6188    0.0000 C   0  0  0  0  0  0  0  0  0  0  0  0
   10.2674  -28.4386    0.0000 C   0  0  0  0  0  0  0  0  0  0  0  0
    8.1212  -28.8588    0.0000 F   0  0  0  0  0  0  0  0  0  0  0  0
   16.6890  -29.6301    0.0000 C   0  0  0  0  0  0  0  0  0  0  0  0
   15.9717  -30.0377    0.0000 C   0  0  0  0  0  0  0  0  0  0  0  0
   17.4006  -30.0476    0.0000 C   0  0  0  0  0  0  0  0  0  0  0  0
   16.6843  -30.4552    0.0000 C   0  0  0  0  0  0  0  0  0  0  0  0
   20.2531  -27.5463    0.0000 C   0  0  0  0  0  0  0  0  0  0  0  0
 17 21  2  0  0  0  0
  5  6  1  0  0  0  0
 20 22  1  0  0  0  0
  1  2  1  0  0  0  0
 22 23  1  0  0  0  0
  8 13  1  0  0  0  0
 22 24  1  1  0  0  0
  9 12  1  0  0  0  0
 24 25  1  0  0  0  0
 12 10  2  0  0  0  0
 25 26  1  0  0  0  0
 11 13  2  0  0  0  0
 25 27  1  0  0  0  0
  5  7  1  1  0  0  0
 23 28  2  0  0  0  0
  6 14  2  0  0  0  0
 23 29  1  0  0  0  0
  2  4  2  0  0  0  0
  1 30  2  0  0  0  0
  6 15  1  0  0  0  0
 30 31  1  0  0  0  0
 31 32  2  0  0  0  0
  7  8  1  0  0  0  0
 33 34  1  0  0  0  0
 15 16  1  0  0  0  0
  8  9  2  0  0  0  0
 16 17  1  0  0  0  0
 31 36  1  0  0  0  0
 32 35  1  0  0  0  0
 35 33  2  0  0  0  0
 34 36  2  0  0  0  0
 16 18  1  6  0  0  0
 33 37  1  0  0  0  0
 10 11  1  0  0  0  0
 19 38  1  0  0  0  0
 18 19  1  0  0  0  0
 38 39  1  0  0  0  0
  3  5  1  0  0  0  0
 38 40  1  0  0  0  0
 17 20  1  0  0  0  0
 38 41  1  0  0  0  0
  2  3  1  0  0  0  0
 29 42  1  0  0  0  0
M  END
>  <Mol Weight>
583.6908

>  <Formula>
C32H42FN3O6

>  <chembl_id>
CHEMBL1075668

$$$$

  Mrv0541 06201412482D          

 37 39  0  0  0  0            999 V2000
   14.1207   -2.1633    0.0000 C   0  0  1  0  0  0  0  0  0  0  0  0
   14.9456   -2.1633    0.0000 C   0  0  2  0  0  0  0  0  0  0  0  0
   15.2006   -1.3787    0.0000 C   0  0  1  0  0  0  0  0  0  0  0  0
   14.5332   -0.8937    0.0000 O   0  0  0  0  0  0  0  0  0  0  0  0
   13.8658   -1.3787    0.0000 C   0  0  2  0  0  0  0  0  0  0  0  0
   13.6357   -2.8306    0.0000 O   0  0  0  0  0  0  0  0  0  0  0  0
   15.4305   -2.8307    0.0000 O   0  0  0  0  0  0  0  0  0  0  0  0
   15.9853   -1.1228    0.0000 N   0  0  0  0  0  0  0  0  0  0  0  0
   16.7170   -1.5040    0.0000 C   0  0  0  0  0  0  0  0  0  0  0  0
   17.4103   -1.0635    0.0000 N   0  0  0  0  0  0  0  0  0  0  0  0
   17.3776   -0.2388    0.0000 C   0  0  0  0  0  0  0  0  0  0  0  0
   16.6455    0.1434    0.0000 C   0  0  0  0  0  0  0  0  0  0  0  0
   15.9461   -0.2989    0.0000 C   0  0  0  0  0  0  0  0  0  0  0  0
   18.0746    0.2026    0.0000 O   0  0  0  0  0  0  0  0  0  0  0  0
   16.7523   -2.3282    0.0000 O   0  0  0  0  0  0  0  0  0  0  0  0
   13.0812   -1.1237    0.0000 C   0  0  0  0  0  0  0  0  0  0  0  0
   12.4681   -1.6758    0.0000 O   0  0  0  0  0  0  0  0  0  0  0  0
   11.6835   -1.4209    0.0000 P   0  0  0  0  0  0  0  0  0  0  0  0
   10.8849   -1.2053    0.0000 O   0  0  0  0  0  0  0  0  0  0  0  0
   11.9186   -0.6301    0.0000 O   0  0  0  0  0  0  0  0  0  0  0  0
   11.4508   -2.2123    0.0000 O   0  0  0  0  0  0  0  0  0  0  0  0
   10.6729   -0.4081    0.0000 P   0  0  0  0  0  0  0  0  0  0  0  0
   10.4542    0.3896    0.0000 O   0  0  0  0  0  0  0  0  0  0  0  0
   11.4693   -0.1930    0.0000 O   0  0  0  0  0  0  0  0  0  0  0  0
    9.8771   -0.6253    0.0000 O   0  0  0  0  0  0  0  0  0  0  0  0
    9.6561    0.5985    0.0000 C   0  0  1  0  0  0  0  0  0  0  0  0
    9.4383    1.3978    0.0000 C   0  0  2  0  0  0  0  0  0  0  0  0
    8.6442    1.6077    0.0000 C   0  0  1  0  0  0  0  0  0  0  0  0
    8.0610    1.0237    0.0000 C   0  0  2  0  0  0  0  0  0  0  0  0
    8.2775    0.2267    0.0000 C   0  0  1  0  0  0  0  0  0  0  0  0
    9.0772    0.0136    0.0000 O   0  0  0  0  0  0  0  0  0  0  0  0
   10.0194    1.9834    0.0000 O   0  0  0  0  0  0  0  0  0  0  0  0
    8.4291    2.4042    0.0000 O   0  0  0  0  0  0  0  0  0  0  0  0
    7.2637    1.2357    0.0000 O   0  0  0  0  0  0  0  0  0  0  0  0
    7.6955   -0.3580    0.0000 C   0  0  0  0  0  0  0  0  0  0  0  0
    6.8982   -0.1464    0.0000 O   0  0  0  0  0  0  0  0  0  0  0  0
    7.9110   -1.1544    0.0000 O   0  0  0  0  0  0  0  0  0  0  0  0
 17 18  1  0  0  0  0
  3  4  1  0  0  0  0
 18 19  1  0  0  0  0
  4  5  1  0  0  0  0
 18 20  2  0  0  0  0
  5  1  1  0  0  0  0
 18 21  1  0  0  0  0
  1  2  1  0  0  0  0
 19 22  1  0  0  0  0
  1  6  1  6  0  0  0
 22 23  1  0  0  0  0
  8 13  1  0  0  0  0
 22 24  2  0  0  0  0
  9 10  1  0  0  0  0
 22 25  1  0  0  0  0
 10 11  1  0  0  0  0
 26 23  1  6  0  0  0
 26 27  1  0  0  0  0
 11 12  1  0  0  0  0
 12 13  2  0  0  0  0
 11 14  2  0  0  0  0
  2  7  1  6  0  0  0
 26 31  1  0  0  0  0
 27 28  1  0  0  0  0
 28 29  1  0  0  0  0
 29 30  1  0  0  0  0
 30 31  1  0  0  0  0
  9 15  2  0  0  0  0
 27 32  1  6  0  0  0
  2  3  1  0  0  0  0
 28 33  1  1  0  0  0
  5 16  1  1  0  0  0
 29 34  1  6  0  0  0
  3  8  1  1  0  0  0
 30 35  1  1  0  0  0
 16 17  1  0  0  0  0
 35 36  1  0  0  0  0
  8  9  1  0  0  0  0
 35 37  2  0  0  0  0
M  END
>  <Mol Weight>
580.2853

>  <Formula>
C15H22N2O18P2

>  <chembl_id>
CHEMBL1162071

$$$$

  Mrv0541 06201412482D          

 43 48  0  0  0  0            999 V2000
   -0.3349    0.1234    0.0000 C   0  0  0  0  0  0  0  0  0  0  0  0
   -0.3349   -0.6963    0.0000 C   0  0  0  0  0  0  0  0  0  0  0  0
   -1.0488   -1.1105    0.0000 C   0  0  0  0  0  0  0  0  0  0  0  0
   -1.0488    0.5464    0.0000 C   0  0  0  0  0  0  0  0  0  0  0  0
    1.0841    0.1234    0.0000 C   0  0  0  0  0  0  0  0  0  0  0  0
    1.0841   -0.6963    0.0000 C   0  0  0  0  0  0  0  0  0  0  0  0
    2.5119    0.1234    0.0000 C   0  0  2  0  0  0  0  0  0  0  0  0
    0.3790    0.5464    0.0000 C   0  0  0  0  0  0  0  0  0  0  0  0
    0.3790   -1.1105    0.0000 C   0  0  0  0  0  0  0  0  0  0  0  0
    2.4960    0.9372    0.0000 C   0  0  0  0  0  0  0  0  0  0  0  0
   -1.7627    0.1234    0.0000 C   0  0  0  0  0  0  0  0  0  0  0  0
   -1.7627   -0.6963    0.0000 C   0  0  0  0  0  0  0  0  0  0  0  0
    1.7980   -1.1105    0.0000 C   0  0  2  0  0  0  0  0  0  0  0  0
    1.7980    0.5464    0.0000 C   0  0  0  0  0  0  0  0  0  0  0  0
    2.5100   -2.3506    0.0000 C   0  0  0  0  0  0  0  0  0  0  0  0
    2.5119   -0.6963    0.0000 C   0  0  0  0  0  0  0  0  0  0  0  0
    3.1916    1.3817    0.0000 N   0  0  0  0  0  0  0  0  0  0  0  0
    2.5095   -3.1755    0.0000 O   0  0  0  0  0  0  0  0  0  0  0  0
    3.2248   -1.9386    0.0000 C   0  0  0  0  0  0  0  0  0  0  0  0
    3.9384   -3.1765    0.0000 C   0  0  0  0  0  0  0  0  0  0  0  0
    3.9390   -2.3515    0.0000 C   0  0  0  0  0  0  0  0  0  0  0  0
    3.2237   -3.5885    0.0000 C   0  0  0  0  0  0  0  0  0  0  0  0
    1.7963   -1.9359    0.0000 O   0  0  0  0  0  0  0  0  0  0  0  0
   -1.0488   -1.6605    0.0000 O   0  0  0  0  0  0  0  0  0  0  0  0
   -1.0488    1.2064    0.0000 O   0  0  0  0  0  0  0  0  0  0  0  0
    1.9103    1.2414    0.0000 O   0  0  0  0  0  0  0  0  0  0  0  0
    3.1550    2.2063    0.0000 C   0  0  0  0  0  0  0  0  0  0  0  0
    3.0730   -0.2240    0.0000 O   0  0  0  0  0  0  0  0  0  0  0  0
    0.3808    1.2064    0.0000 O   0  0  0  0  0  0  0  0  0  0  0  0
    0.3805   -1.6605    0.0000 O   0  0  0  0  0  0  0  0  0  0  0  0
    4.4154   -2.0768    0.0000 N   0  0  0  0  0  0  0  0  0  0  0  0
    4.5098   -3.5069    0.0000 O   0  0  0  0  0  0  0  0  0  0  0  0
   -2.4766   -1.1105    0.0000 C   0  0  0  0  0  0  0  0  0  0  0  0
   -2.4766    0.5464    0.0000 C   0  0  0  0  0  0  0  0  0  0  0  0
    3.7773    1.0775    0.0000 C   0  0  0  0  0  0  0  0  0  0  0  0
    3.2233   -4.2485    0.0000 C   0  0  0  0  0  0  0  0  0  0  0  0
    3.8496    2.6516    0.0000 C   0  0  0  0  0  0  0  0  0  0  0  0
    2.4222    2.5853    0.0000 C   0  0  0  0  0  0  0  0  0  0  0  0
   -3.1905    0.1234    0.0000 C   0  0  0  0  0  0  0  0  0  0  0  0
   -3.1905   -0.6963    0.0000 C   0  0  0  0  0  0  0  0  0  0  0  0
    2.3839    3.4094    0.0000 C   0  0  0  0  0  0  0  0  0  0  0  0
    3.8113    3.4756    0.0000 C   0  0  0  0  0  0  0  0  0  0  0  0
    3.0785    3.8546    0.0000 C   0  0  0  0  0  0  0  0  0  0  0  0
  1  2  2  0  0  0  0
  2  3  1  0  0  0  0
  1  4  1  0  0  0  0
  5  6  1  0  0  0  0
  1  8  1  0  0  0  0
  5  8  2  0  0  0  0
  2  9  1  0  0  0  0
  6  9  2  0  0  0  0
  7 10  1  0  0  0  0
  4 11  1  0  0  0  0
  3 12  1  0  0  0  0
 11 12  1  0  0  0  0
  6 13  1  0  0  0  0
  5 14  1  0  0  0  0
  7 14  1  0  0  0  0
  7 16  1  0  0  0  0
 13 16  1  0  0  0  0
 10 17  1  0  0  0  0
 15 18  1  0  0  0  0
 15 19  1  0  0  0  0
 19 21  1  0  0  0  0
 20 21  1  0  0  0  0
 18 22  1  0  0  0  0
 20 22  1  0  0  0  0
 13 23  1  6  0  0  0
 15 23  1  0  0  0  0
  3 24  2  0  0  0  0
  4 25  2  0  0  0  0
 10 26  2  0  0  0  0
 17 27  1  0  0  0  0
  7 28  1  6  0  0  0
  8 29  1  0  0  0  0
  9 30  1  0  0  0  0
 21 31  1  0  0  0  0
 20 32  1  0  0  0  0
 12 33  2  0  0  0  0
 11 34  2  0  0  0  0
 17 35  1  0  0  0  0
 22 36  1  0  0  0  0
 27 37  1  0  0  0  0
 27 38  2  0  0  0  0
 34 39  1  0  0  0  0
 33 40  1  0  0  0  0
 39 40  2  0  0  0  0
 38 41  1  0  0  0  0
 37 42  2  0  0  0  0
 41 43  2  0  0  0  0
 42 43  1  0  0  0  0
M  END
>  <Mol Weight>
588.6045

>  <Formula>
C32H32N2O9

>  <chembl_id>
CHEMBL1192973

$$$$

  Mrv0541 06201412482D          

 41 45  0  0  0  0            999 V2000
    1.7309    1.6696    0.0000 N   0  0  0  0  0  0  0  0  0  0  0  0
    1.4768    0.8847    0.0000 C   0  0  0  0  0  0  0  0  0  0  0  0
    2.1447    0.4124    0.0000 C   0  0  1  0  0  0  0  0  0  0  0  0
    2.8117    0.8860    0.0000 C   0  0  2  0  0  0  0  0  0  0  0  0
    2.5559    1.6705    0.0000 C   0  0  0  0  0  0  0  0  0  0  0  0
    2.1444   -0.4129    0.0000 N   0  0  0  0  0  0  0  0  0  0  0  0
    3.5940    0.6273    0.0000 N   0  0  0  0  0  0  0  0  0  0  0  0
    1.4293   -0.8252    0.0000 S   0  0  0  0  0  0  0  0  0  0  0  0
    0.7144   -0.4125    0.0000 C   0  0  0  0  0  0  0  0  0  0  0  0
    2.0007   -1.1555    0.0000 O   0  0  0  0  0  0  0  0  0  0  0  0
    1.4291   -1.4852    0.0000 O   0  0  0  0  0  0  0  0  0  0  0  0
    4.2101    1.1766    0.0000 S   0  0  0  0  0  0  0  0  0  0  0  0
    4.3441    0.5304    0.0000 O   0  0  0  0  0  0  0  0  0  0  0  0
    4.8367    0.9694    0.0000 O   0  0  0  0  0  0  0  0  0  0  0  0
    2.8593   -0.8257    0.0000 C   0  0  0  0  0  0  0  0  0  0  0  0
    2.8598   -1.6512    0.0000 C   0  0  0  0  0  0  0  0  0  0  0  0
    3.7611   -0.1810    0.0000 C   0  0  0  0  0  0  0  0  0  0  0  0
    4.5445   -0.4409    0.0000 C   0  0  0  0  0  0  0  0  0  0  0  0
    4.0429    1.9850    0.0000 C   0  0  0  0  0  0  0  0  0  0  0  0
    0.7144    0.4125    0.0000 C   0  0  0  0  0  0  0  0  0  0  0  0
    0.0000    0.8250    0.0000 C   0  0  0  0  0  0  0  0  0  0  0  0
   -0.7144    0.4125    0.0000 C   0  0  0  0  0  0  0  0  0  0  0  0
   -0.7144   -0.4125    0.0000 C   0  0  0  0  0  0  0  0  0  0  0  0
    0.0000   -0.8250    0.0000 C   0  0  0  0  0  0  0  0  0  0  0  0
    4.6591    2.5336    0.0000 C   0  0  0  0  0  0  0  0  0  0  0  0
    4.4921    3.3415    0.0000 C   0  0  0  0  0  0  0  0  0  0  0  0
    3.7089    3.6008    0.0000 C   0  0  0  0  0  0  0  0  0  0  0  0
    3.0927    3.0522    0.0000 C   0  0  0  0  0  0  0  0  0  0  0  0
    3.2597    2.2443    0.0000 C   0  0  0  0  0  0  0  0  0  0  0  0
    3.5737   -2.0647    0.0000 C   0  0  0  0  0  0  0  0  0  0  0  0
    3.5726   -2.8897    0.0000 C   0  0  0  0  0  0  0  0  0  0  0  0
    2.8575   -3.3012    0.0000 C   0  0  0  0  0  0  0  0  0  0  0  0
    2.1436   -2.8877    0.0000 C   0  0  0  0  0  0  0  0  0  0  0  0
    2.1448   -2.0627    0.0000 C   0  0  0  0  0  0  0  0  0  0  0  0
    4.7128   -1.2487    0.0000 C   0  0  0  0  0  0  0  0  0  0  0  0
    5.4964   -1.5068    0.0000 C   0  0  0  0  0  0  0  0  0  0  0  0
    6.1117   -0.9573    0.0000 C   0  0  0  0  0  0  0  0  0  0  0  0
    5.9435   -0.1497    0.0000 C   0  0  0  0  0  0  0  0  0  0  0  0
    5.1600    0.1085    0.0000 C   0  0  0  0  0  0  0  0  0  0  0  0
    1.1908    0.6875    0.0000 C   0  0  0  0  0  0  0  0  0  0  0  0
    2.8490    1.8785    0.0000 C   0  0  0  0  0  0  0  0  0  0  0  0
  1  2  1  0  0  0  0
  2  3  1  0  0  0  0
  3  4  1  0  0  0  0
  1  5  1  0  0  0  0
  4  5  1  0  0  0  0
  3  6  1  1  0  0  0
  4  7  1  6  0  0  0
  6  8  1  0  0  0  0
  8  9  1  0  0  0  0
  8 10  2  0  0  0  0
  8 11  2  0  0  0  0
  7 12  1  0  0  0  0
 12 13  2  0  0  0  0
 12 14  2  0  0  0  0
  6 15  1  0  0  0  0
 15 16  1  0  0  0  0
  7 17  1  0  0  0  0
 17 18  1  0  0  0  0
 12 19  1  0  0  0  0
  9 20  2  0  0  0  0
 20 21  1  0  0  0  0
 21 22  2  0  0  0  0
 22 23  1  0  0  0  0
  9 24  1  0  0  0  0
 23 24  2  0  0  0  0
 19 25  2  0  0  0  0
 25 26  1  0  0  0  0
 26 27  2  0  0  0  0
 27 28  1  0  0  0  0
 19 29  1  0  0  0  0
 28 29  2  0  0  0  0
 16 30  2  0  0  0  0
 30 31  1  0  0  0  0
 31 32  2  0  0  0  0
 32 33  1  0  0  0  0
 16 34  1  0  0  0  0
 33 34  2  0  0  0  0
 18 35  2  0  0  0  0
 35 36  1  0  0  0  0
 36 37  2  0  0  0  0
 37 38  1  0  0  0  0
 18 39  1  0  0  0  0
 38 39  2  0  0  0  0
 20 40  1  0  0  0  0
 29 41  1  0  0  0  0
M  END
>  <Mol Weight>
589.768

>  <Formula>
C32H35N3O4S2

>  <chembl_id>
CHEMBL1188581

$$$$

  Mrv0541 06201412482D          

 43 46  0  0  0  0            999 V2000
   -2.3720   -0.2279    0.0000 C   0  0  0  0  0  0  0  0  0  0  0  0
   -2.3720   -1.0462    0.0000 C   0  0  2  0  0  0  0  0  0  0  0  0
   -1.6677   -1.4605    0.0000 C   0  0  0  0  0  0  0  0  0  0  0  0
   -1.6780    0.1761    0.0000 C   0  0  0  0  0  0  0  0  0  0  0  0
   -0.9530   -0.2175    0.0000 C   0  0  1  0  0  0  0  0  0  0  0  0
   -0.9530   -1.0358    0.0000 C   0  0  1  0  0  0  0  0  0  0  0  0
   -0.2382   -1.4502    0.0000 C   0  0  0  0  0  0  0  0  0  0  0  0
    0.4661   -1.0254    0.0000 C   0  0  2  0  0  0  0  0  0  0  0  0
   -0.2486    0.1864    0.0000 C   0  0  2  0  0  0  0  0  0  0  0  0
    0.4558   -0.2072    0.0000 C   0  0  2  0  0  0  0  0  0  0  0  0
    0.4558    1.4294    0.0000 C   0  0  0  0  0  0  0  0  0  0  0  0
   -0.2589    1.0151    0.0000 C   0  0  0  0  0  0  0  0  0  0  0  0
    1.1601    1.0151    0.0000 C   0  0  1  0  0  0  0  0  0  0  0  0
    1.1601    0.1968    0.0000 C   0  0  1  0  0  0  0  0  0  0  0  0
    2.5896    0.1864    0.0000 C   0  0  0  0  0  0  0  0  0  0  0  0
    2.5896    1.0254    0.0000 C   0  0  0  0  0  0  0  0  0  0  0  0
    1.8748    1.4398    0.0000 C   0  0  2  0  0  0  0  0  0  0  0  0
    2.6105    1.8464    0.0000 C   0  0  1  0  0  0  0  0  0  0  0  0
    3.3506    1.4248    0.0000 C   0  0  0  0  0  0  0  0  0  0  0  0
    2.6067    2.5275    0.0000 C   0  0  0  0  0  0  0  0  0  0  0  0
    4.0861    1.8546    0.0000 O   0  0  0  0  0  0  0  0  0  0  0  0
   -3.1125   -1.4680    0.0000 N   0  0  0  0  0  0  0  0  0  0  0  0
   -3.8480   -1.0384    0.0000 C   0  0  0  0  0  0  0  0  0  0  0  0
   -4.5882   -1.4600    0.0000 C   0  0  0  0  0  0  0  0  0  0  0  0
   -5.3237   -1.0304    0.0000 C   0  0  0  0  0  0  0  0  0  0  0  0
   -6.0638   -1.4520    0.0000 N   0  0  0  0  0  0  0  0  0  0  0  0
   -6.7993   -1.0224    0.0000 C   0  0  0  0  0  0  0  0  0  0  0  0
   -7.5395   -1.4440    0.0000 C   0  0  0  0  0  0  0  0  0  0  0  0
   -8.2750   -1.0144    0.0000 C   0  0  0  0  0  0  0  0  0  0  0  0
   -9.0151   -1.4360    0.0000 C   0  0  0  0  0  0  0  0  0  0  0  0
   -9.6033   -1.0925    0.0000 N   0  0  0  0  0  0  0  0  0  0  0  0
   -0.9499   -1.6034    0.0000 H   0  0  0  0  0  0  0  0  0  0  0  0
    1.0613   -1.3566    0.0000 N   0  0  0  0  0  0  0  0  0  0  0  0
   -0.9609    0.4635    0.0000 C   0  0  0  0  0  0  0  0  0  0  0  0
    1.1586    1.6962    0.0000 C   0  0  0  0  0  0  0  0  0  0  0  0
    0.9487   -0.4886    0.0000 H   0  0  0  0  0  0  0  0  0  0  0  0
   -0.2459   -0.3811    0.0000 H   0  0  0  0  0  0  0  0  0  0  0  0
    1.8914    0.8725    0.0000 H   0  0  0  0  0  0  0  0  0  0  0  0
    1.3042   -0.3522    0.0000 H   0  0  0  0  0  0  0  0  0  0  0  0
    4.8263    1.4329    0.0000 S   0  0  0  0  0  0  0  0  0  0  0  0
    4.8300    0.7518    0.0000 O   0  0  0  0  0  0  0  0  0  0  0  0
    5.4144    1.7765    0.0000 O   0  0  0  0  0  0  0  0  0  0  0  0
    5.4180    1.0955    0.0000 O   0  0  0  0  0  0  0  0  0  0  0  0
  1  2  1  0  0  0  0
  2  3  1  0  0  0  0
  1  4  1  0  0  0  0
  4  5  1  0  0  0  0
  3  6  1  0  0  0  0
  5  6  1  0  0  0  0
  6  7  1  0  0  0  0
  7  8  1  0  0  0  0
  5  9  1  0  0  0  0
  8 10  1  0  0  0  0
  9 10  1  0  0  0  0
  9 12  1  0  0  0  0
 11 12  1  0  0  0  0
 11 13  1  0  0  0  0
 10 14  1  0  0  0  0
 13 14  1  0  0  0  0
 14 15  1  0  0  0  0
 15 16  1  0  0  0  0
 13 17  1  0  0  0  0
 16 17  1  0  0  0  0
 17 18  1  0  0  0  0
 18 19  1  0  0  0  0
 18 20  1  6  0  0  0
 19 21  1  0  0  0  0
  2 22  1  6  0  0  0
 22 23  1  0  0  0  0
 23 24  1  0  0  0  0
 24 25  1  0  0  0  0
 25 26  1  0  0  0  0
 26 27  1  0  0  0  0
 27 28  1  0  0  0  0
 28 29  1  0  0  0  0
 29 30  1  0  0  0  0
 30 31  1  0  0  0  0
  6 32  1  6  0  0  0
  8 33  1  6  0  0  0
  5 34  1  1  0  0  0
 13 35  1  1  0  0  0
 10 36  1  1  0  0  0
  9 37  1  6  0  0  0
 17 38  1  6  0  0  0
 14 39  1  6  0  0  0
 21 40  1  0  0  0  0
 40 41  1  0  0  0  0
 40 42  2  0  0  0  0
 40 43  2  0  0  0  0
M  END
>  <Mol Weight>
556.844

>  <Formula>
C29H56N4O4S

>  <chembl_id>
CHEMBL1188583

$$$$

  Mrv0541 06201412482D          

 44 49  0  0  0  0            999 V2000
   -1.0779   -1.4500    0.0000 C   0  0  0  0  0  0  0  0  0  0  0  0
   -1.0775   -2.2750    0.0000 C   0  0  0  0  0  0  0  0  0  0  0  0
   -1.9059   -2.2706    0.0000 C   0  0  0  0  0  0  0  0  0  0  0  0
   -0.2588   -2.2747    0.0000 C   0  0  0  0  0  0  0  0  0  0  0  0
   -1.0676   -3.0937    0.0000 C   0  0  0  0  0  0  0  0  0  0  0  0
    0.1489   -2.9859    0.0000 C   0  0  0  0  0  0  0  0  0  0  0  0
    0.9668   -2.9860    0.0000 C   0  0  0  0  0  0  0  0  0  0  0  0
    1.3767   -2.2764    0.0000 C   0  0  0  0  0  0  0  0  0  0  0  0
    0.9628   -1.5653    0.0000 C   0  0  0  0  0  0  0  0  0  0  0  0
    0.1462   -1.5687    0.0000 C   0  0  0  0  0  0  0  0  0  0  0  0
   -1.7726   -3.5087    0.0000 C   0  0  0  0  0  0  0  0  0  0  0  0
   -1.7631   -4.3267    0.0000 C   0  0  0  0  0  0  0  0  0  0  0  0
   -1.0485   -4.7282    0.0000 C   0  0  0  0  0  0  0  0  0  0  0  0
   -0.3424   -4.3059    0.0000 C   0  0  0  0  0  0  0  0  0  0  0  0
   -0.3553   -3.4894    0.0000 C   0  0  0  0  0  0  0  0  0  0  0  0
   -2.3143   -1.5488    0.0000 C   0  0  0  0  0  0  0  0  0  0  0  0
   -3.1419   -1.5439    0.0000 C   0  0  0  0  0  0  0  0  0  0  0  0
   -3.5607   -2.2597    0.0000 C   0  0  0  0  0  0  0  0  0  0  0  0
   -3.1459   -2.9816    0.0000 C   0  0  0  0  0  0  0  0  0  0  0  0
   -2.3197   -2.9828    0.0000 C   0  0  0  0  0  0  0  0  0  0  0  0
    0.3046    0.2714    0.0000 C   0  0  2  0  0  0  0  0  0  0  0  0
    0.0491    1.0536    0.0000 C   0  0  0  0  0  0  0  0  0  0  0  0
   -0.7765    1.0536    0.0000 C   0  0  0  0  0  0  0  0  0  0  0  0
   -1.0282    0.2714    0.0000 C   0  0  0  0  0  0  0  0  0  0  0  0
   -0.3637   -0.2157    0.0000 N   0  0  0  0  0  0  0  0  0  0  0  0
   -0.3637   -1.0372    0.0000 C   0  0  0  0  0  0  0  0  0  0  0  0
    1.0353    0.7039    0.0000 C   0  0  0  0  0  0  0  0  0  0  0  0
    1.7756    0.2872    0.0000 N   0  0  0  0  0  0  0  0  0  0  0  0
    1.0261    1.5536    0.0000 O   0  0  0  0  0  0  0  0  0  0  0  0
    1.8732   -0.5531    0.0000 C   0  0  0  0  0  0  0  0  0  0  0  0
    2.7061   -0.7206    0.0000 C   0  0  0  0  0  0  0  0  0  0  0  0
    3.1228    0.0197    0.0000 C   0  0  0  0  0  0  0  0  0  0  0  0
    2.5474    0.6447    0.0000 C   0  0  2  0  0  0  0  0  0  0  0  0
    3.1432    1.2490    0.0000 C   0  0  0  0  0  0  0  0  0  0  0  0
    3.9654    1.0347    0.0000 N   0  0  0  0  0  0  0  0  0  0  0  0
    2.9175    2.0680    0.0000 O   0  0  0  0  0  0  0  0  0  0  0  0
    4.1894    0.2114    0.0000 C   0  0  0  0  0  0  0  0  0  0  0  0
    5.0074   -0.0037    0.0000 C   0  0  0  0  0  0  0  0  0  0  0  0
    5.6072    0.5985    0.0000 C   0  0  0  0  0  0  0  0  0  0  0  0
    5.3833    1.4191    0.0000 C   0  0  0  0  0  0  0  0  0  0  0  0
    4.5595    1.6375    0.0000 C   0  0  0  0  0  0  0  0  0  0  0  0
    4.3356    2.4570    0.0000 C   0  0  0  0  0  0  0  0  0  0  0  0
    4.9335    3.0608    0.0000 N   0  0  0  0  0  0  0  0  0  0  0  0
    0.4546   -1.0340    0.0000 O   0  0  0  0  0  0  0  0  0  0  0  0
 13 14  1  0  0  0  0
  6  7  1  0  0  0  0
 14 15  2  0  0  0  0
 15  5  1  0  0  0  0
  3 16  2  0  0  0  0
  7  8  2  0  0  0  0
 16 17  1  0  0  0  0
  2  4  1  0  0  0  0
 17 18  2  0  0  0  0
  8  9  1  0  0  0  0
 18 19  1  0  0  0  0
  1  2  1  0  0  0  0
 19 20  2  0  0  0  0
 20  3  1  0  0  0  0
  9 10  2  0  0  0  0
 25 26  1  0  0  0  0
 26  1  1  0  0  0  0
 21 27  1  1  0  0  0
 27 28  1  0  0  0  0
 27 29  2  0  0  0  0
 28 30  1  0  0  0  0
 30 31  1  0  0  0  0
 31 32  1  0  0  0  0
 32 33  1  0  0  0  0
 33 28  1  0  0  0  0
 33 34  1  1  0  0  0
 34 35  1  0  0  0  0
 34 36  2  0  0  0  0
 35 37  1  0  0  0  0
 21 22  1  0  0  0  0
 22 23  1  0  0  0  0
 23 24  1  0  0  0  0
 35 41  1  0  0  0  0
 37 38  1  0  0  0  0
 38 39  1  0  0  0  0
 39 40  1  0  0  0  0
 40 41  1  0  0  0  0
 24 25  1  0  0  0  0
 41 42  1  0  0  0  0
 25 21  1  0  0  0  0
 42 43  1  0  0  0  0
 10  4  1  0  0  0  0
 26 44  2  0  0  0  0
  2  5  1  0  0  0  0
  5 11  2  0  0  0  0
 11 12  1  0  0  0  0
  4  6  2  0  0  0  0
 12 13  2  0  0  0  0
  2  3  1  0  0  0  0
M  END
>  <Mol Weight>
592.7703

>  <Formula>
C37H44N4O3

>  <chembl_id>
CHEMBL1184894

$$$$

  Mrv0541 06201412482D          

 49 54  0  0  0  0            999 V2000
   11.7688   -2.5364    0.0000 C   0  0  0  0  0  0  0  0  0  0  0  0
   11.7664   -1.7125    0.0000 O   0  0  0  0  0  0  0  0  0  0  0  0
   11.0551   -2.9502    0.0000 C   0  0  0  0  0  0  0  0  0  0  0  0
   10.3433   -2.5405    0.0000 C   0  0  0  0  0  0  0  0  0  0  0  0
    9.6296   -2.9544    0.0000 C   0  0  0  0  0  0  0  0  0  0  0  0
    9.6320   -3.7782    0.0000 C   0  0  0  0  0  0  0  0  0  0  0  0
   10.3439   -4.1881    0.0000 C   0  0  0  0  0  0  0  0  0  0  0  0
   11.0574   -3.7740    0.0000 C   0  0  0  0  0  0  0  0  0  0  0  0
   12.4848   -2.9461    0.0000 O   0  0  0  0  0  0  0  0  0  0  0  0
   18.2784   -0.0750    0.0000 C   0  0  0  0  0  0  0  0  0  0  0  0
   19.0517    0.2024    0.0000 C   0  0  2  0  0  0  0  0  0  0  0  0
   19.0298    1.0241    0.0000 O   0  0  0  0  0  0  0  0  0  0  0  0
   18.2367    1.2601    0.0000 C   0  0  0  0  0  0  0  0  0  0  0  0
   17.7738    0.5768    0.0000 C   0  0  1  0  0  0  0  0  0  0  0  0
   17.9579    2.0342    0.0000 O   0  0  0  0  0  0  0  0  0  0  0  0
   13.1941   -1.7204    0.0000 C   0  0  0  0  0  0  0  0  0  0  0  0
   13.1965   -2.5430    0.0000 C   0  0  1  0  0  0  0  0  0  0  0  0
   13.9079   -2.9531    0.0000 C   0  0  0  0  0  0  0  0  0  0  0  0
   13.9073   -1.3017    0.0000 C   0  0  0  0  0  0  0  0  0  0  0  0
   14.6208   -1.7205    0.0000 C   0  0  1  0  0  0  0  0  0  0  0  0
   14.6256   -2.5430    0.0000 C   0  0  1  0  0  0  0  0  0  0  0  0
   15.3349   -2.9512    0.0000 C   0  0  0  0  0  0  0  0  0  0  0  0
   16.0518   -2.5410    0.0000 C   0  0  0  0  0  0  0  0  0  0  0  0
   15.3316   -1.2998    0.0000 C   0  0  2  0  0  0  0  0  0  0  0  0
   16.0465   -1.7126    0.0000 C   0  0  2  0  0  0  0  0  0  0  0  0
   16.0389   -0.0657    0.0000 C   0  0  0  0  0  0  0  0  0  0  0  0
   15.3248   -0.4783    0.0000 C   0  0  0  0  0  0  0  0  0  0  0  0
   16.7540   -0.4764    0.0000 C   0  0  1  0  0  0  0  0  0  0  0  0
   16.7556   -1.3017    0.0000 C   0  0  1  0  0  0  0  0  0  0  0  0
   17.5446   -1.5555    0.0000 C   0  0  0  0  0  0  0  0  0  0  0  0
   18.0287   -0.8824    0.0000 C   0  0  0  0  0  0  0  0  0  0  0  0
   17.5397   -0.2201    0.0000 C   0  0  2  0  0  0  0  0  0  0  0  0
   14.6121   -0.8916    0.0000 C   0  0  0  0  0  0  0  0  0  0  0  0
   16.0368   -0.8822    0.0000 C   0  0  0  0  0  0  0  0  0  0  0  0
   15.3270   -2.1243    0.0000 H   0  0  0  0  0  0  0  0  0  0  0  0
   16.7518   -2.1255    0.0000 H   0  0  0  0  0  0  0  0  0  0  0  0
   16.5341    0.3240    0.0000 H   0  0  0  0  0  0  0  0  0  0  0  0
   19.7351   -0.2635    0.0000 C   0  0  0  0  0  0  0  0  0  0  0  0
   20.4803    0.0940    0.0000 C   0  0  0  0  0  0  0  0  0  0  0  0
   21.1636   -0.3719    0.0000 C   0  0  0  0  0  0  0  0  0  0  0  0
   20.5465    0.9173    0.0000 C   0  0  0  0  0  0  0  0  0  0  0  0
   14.4903   -3.5342    0.0000 C   0  0  0  0  0  0  0  0  0  0  0  0
   13.3192   -3.5376    0.0000 C   0  0  0  0  0  0  0  0  0  0  0  0
   14.8382   -3.3366    0.0000 H   0  0  0  0  0  0  0  0  0  0  0  0
   18.3361   -0.4306    0.0000 H   0  0  0  0  0  0  0  0  0  0  0  0
   16.9483    0.5484    0.0000 O   0  0  0  0  0  0  0  0  0  0  0  0
    8.9184   -4.1922    0.0000 C   0  0  0  0  0  0  0  0  0  0  0  0
    8.2031   -3.7811    0.0000 O   0  0  0  0  0  0  0  0  0  0  0  0
    8.9201   -5.0172    0.0000 O   0  0  0  0  0  0  0  0  0  0  0  0
  4  5  1  0  0  0  0
  5  6  2  0  0  0  0
  6  7  1  0  0  0  0
  7  8  2  0  0  0  0
  8  3  1  0  0  0  0
  1  9  1  0  0  0  0
 10 11  1  0  0  0  0
 11 12  1  0  0  0  0
 12 13  1  0  0  0  0
 13 14  1  0  0  0  0
 14 10  1  0  0  0  0
 13 15  2  0  0  0  0
 16 17  1  0  0  0  0
 16 19  1  0  0  0  0
 17 18  1  0  0  0  0
 18 21  1  0  0  0  0
 20 19  1  0  0  0  0
 20 21  1  0  0  0  0
 20 24  1  0  0  0  0
 21 22  1  0  0  0  0
 22 23  1  0  0  0  0
 23 25  1  0  0  0  0
 24 25  1  0  0  0  0
 24 27  1  0  0  0  0
 25 29  1  0  0  0  0
 28 26  1  0  0  0  0
 26 27  1  0  0  0  0
 28 29  1  0  0  0  0
 29 30  1  0  0  0  0
 30 31  1  0  0  0  0
 31 32  1  0  0  0  0
 32 28  1  0  0  0  0
 20 33  1  1  0  0  0
 25 34  1  1  0  0  0
 24 35  1  6  0  0  0
 29 36  1  6  0  0  0
 32 14  1  0  0  0  0
 28 37  1  1  0  0  0
 11 38  1  6  0  0  0
 38 39  2  0  0  0  0
 39 40  1  0  0  0  0
 39 41  1  0  0  0  0
 18 42  1  0  0  0  0
 18 43  1  0  0  0  0
 21 44  1  6  0  0  0
 32 45  1  6  0  0  0
 17  9  1  1  0  0  0
  1  2  2  0  0  0  0
  1  3  1  0  0  0  0
  3  4  2  0  0  0  0
 14 46  1  1  0  0  0
  6 47  1  0  0  0  0
 47 49  2  0  0  0  0
 47 48  1  0  0  0  0
M  END
>  <Mol Weight>
606.7887

>  <Formula>
C37H50O7

>  <chembl_id>
CHEMBL1163239

$$$$

  Mrv0541 06201412482D          

 46 51  0  0  0  0            999 V2000
    0.7000   -3.2917    0.0000 C   0  0  1  0  0  0  0  0  0  0  0  0
   -0.0125   -3.6917    0.0000 C   0  0  1  0  0  0  0  0  0  0  0  0
   -1.4375   -3.6875    0.0000 C   0  0  2  0  0  0  0  0  0  0  0  0
    2.1417   -2.4792    0.0000 C   0  0  1  0  0  0  0  0  0  0  0  0
    1.4292   -2.0542    0.0000 C   0  0  1  0  0  0  0  0  0  0  0  0
    0.7125   -2.4667    0.0000 C   0  0  1  0  0  0  0  0  0  0  0  0
   -0.7250   -3.2667    0.0000 C   0  0  1  0  0  0  0  0  0  0  0  0
   -1.4458   -4.5083    0.0000 C   0  0  2  0  0  0  0  0  0  0  0  0
   -2.1583   -4.9292    0.0000 C   0  0  0  0  0  0  0  0  0  0  0  0
    1.6167   -1.2542    0.0000 C   0  0  2  0  0  0  0  0  0  0  0  0
   -0.5125   -0.7625    0.0000 N   0  3  0  0  0  0  0  0  0  0  0  0
    0.9208   -0.8083    0.0000 C   0  0  0  0  0  0  0  0  0  0  0  0
    2.8500   -2.8917    0.0000 C   0  0  0  0  0  0  0  0  0  0  0  0
    1.4042   -3.7042    0.0000 C   0  0  0  0  0  0  0  0  0  0  0  0
   -0.0125   -4.5167    0.0000 C   0  0  0  0  0  0  0  0  0  0  0  0
    2.1292   -3.3167    0.0000 C   0  0  0  0  0  0  0  0  0  0  0  0
    2.7625   -1.9417    0.0000 C   0  0  0  0  0  0  0  0  0  0  0  0
    0.0000   -2.0417    0.0000 C   0  0  0  0  0  0  0  0  0  0  0  0
   -2.1583   -3.2667    0.0000 C   0  0  0  0  0  0  0  0  0  0  0  0
   -0.7208   -2.4417    0.0000 C   0  0  0  0  0  0  0  0  0  0  0  0
   -0.7333   -4.9292    0.0000 C   0  0  0  0  0  0  0  0  0  0  0  0
    0.1875   -1.2000    0.0000 C   0  0  0  0  0  0  0  0  0  0  0  0
    2.4417   -1.1792    0.0000 C   0  0  0  0  0  0  0  0  0  0  0  0
   -1.9083    0.1083    0.0000 C   0  0  0  0  0  0  0  0  0  0  0  0
   -2.8708   -4.5083    0.0000 C   0  0  2  0  0  0  0  0  0  0  0  0
   -1.1792    0.4958    0.0000 C   0  0  0  0  0  0  0  0  0  0  0  0
   -1.9333   -0.7208    0.0000 C   0  0  0  0  0  0  0  0  0  0  0  0
   -2.6125    0.5417    0.0000 N   0  0  0  0  0  0  0  0  0  0  0  0
   -1.2333   -1.1542    0.0000 C   0  0  0  0  0  0  0  0  0  0  0  0
   -0.4833    0.0583    0.0000 C   0  0  0  0  0  0  0  0  0  0  0  0
    2.8500   -3.7125    0.0000 O   0  0  0  0  0  0  0  0  0  0  0  0
    0.9500    0.0083    0.0000 C   0  0  0  0  0  0  0  0  0  0  0  0
   -2.8708   -3.6875    0.0000 C   0  0  0  0  0  0  0  0  0  0  0  0
    0.6917   -4.1042    0.0000 C   0  0  0  0  0  0  0  0  0  0  0  0
    3.5625   -2.4792    0.0000 O   0  0  0  0  0  0  0  0  0  0  0  0
   -0.0208   -2.8667    0.0000 C   0  0  0  0  0  0  0  0  0  0  0  0
   -1.4458   -2.8625    0.0000 C   0  0  0  0  0  0  0  0  0  0  0  0
   -1.9458   -5.7167    0.0000 C   0  0  0  0  0  0  0  0  0  0  0  0
   -2.5750   -5.6292    0.0000 C   0  0  0  0  0  0  0  0  0  0  0  0
   -3.5833   -4.9292    0.0000 O   0  0  0  0  0  0  0  0  0  0  0  0
   -3.3375    0.1500    0.0000 C   0  0  0  0  0  0  0  0  0  0  0  0
   -2.5833    1.3667    0.0000 C   0  0  0  0  0  0  0  0  0  0  0  0
    1.4292   -2.8750    0.0000 H   0  0  0  0  0  0  0  0  0  0  0  0
   -1.4458   -5.3292    0.0000 H   0  0  0  0  0  0  0  0  0  0  0  0
   -0.7333   -4.0917    0.0000 H   0  0  0  0  0  0  0  0  0  0  0  0
    0.7042   -1.6417    0.0000 H   0  0  0  0  0  0  0  0  0  0  0  0
  2  1  1  0  0  0  0
  3  7  1  0  0  0  0
  4  5  1  0  0  0  0
  5  6  1  0  0  0  0
  6  1  1  0  0  0  0
  7  2  1  0  0  0  0
  8  3  1  0  0  0  0
  9  8  1  0  0  0  0
 10  5  1  0  0  0  0
 11 22  1  0  0  0  0
 10 12  1  6  0  0  0
  4 13  1  1  0  0  0
 14  1  1  0  0  0  0
 15  2  1  0  0  0  0
 16 14  1  0  0  0  0
 17  4  1  0  0  0  0
 18  6  1  0  0  0  0
 19  3  1  0  0  0  0
 20 18  1  0  0  0  0
 21 15  1  0  0  0  0
 22 12  1  0  0  0  0
 23 10  1  0  0  0  0
 24 27  1  0  0  0  0
 25  9  1  0  0  0  0
 26 30  1  0  0  0  0
 27 29  2  0  0  0  0
 28 24  1  0  0  0  0
 29 11  1  0  0  0  0
 30 11  2  0  0  0  0
 31 13  2  0  0  0  0
 32 12  2  0  0  0  0
 33 19  1  0  0  0  0
  1 34  1  6  0  0  0
 35 13  1  0  0  0  0
  2 36  1  1  0  0  0
  3 37  1  1  0  0  0
 38  9  1  0  0  0  0
 39  9  1  0  0  0  0
 25 40  1  1  0  0  0
 41 28  1  0  0  0  0
 42 28  1  0  0  0  0
  5 43  1  6  0  0  0
  8 44  1  6  0  0  0
  7 45  1  6  0  0  0
  6 46  1  1  0  0  0
 16  4  1  0  0  0  0
  7 20  1  0  0  0  0
 21  8  1  0  0  0  0
 17 23  1  0  0  0  0
 33 25  1  0  0  0  0
 24 26  2  0  0  0  0
M  CHG  1  11   1
M  END
>  <Mol Weight>
577.8595

>  <Formula>
C37H57N2O3

>  <chembl_id>
CHEMBL1229317

$$$$

  Mrv0541 06201412482D          

 33 36  0  0  0  0            999 V2000
    9.6451   -5.2140    0.0000 N   0  0  0  0  0  0  0  0  0  0  0  0
   10.9734   -5.2490    0.0000 N   0  0  0  0  0  0  0  0  0  0  0  0
   10.2918   -5.7130    0.0000 C   0  0  0  0  0  0  0  0  0  0  0  0
   10.7420   -4.4550    0.0000 C   0  0  0  0  0  0  0  0  0  0  0  0
    9.9164   -4.4383    0.0000 C   0  0  0  0  0  0  0  0  0  0  0  0
    9.5225   -3.7100    0.0000 N   0  0  0  0  0  0  0  0  0  0  0  0
    9.9473   -3.0176    0.0000 C   0  0  0  0  0  0  0  0  0  0  0  0
   10.7774   -3.0310    0.0000 N   0  0  0  0  0  0  0  0  0  0  0  0
   11.1740   -3.7522    0.0000 C   0  0  0  0  0  0  0  0  0  0  0  0
   11.9977   -3.7676    0.0000 N   0  0  0  0  0  0  0  0  0  0  0  0
    4.5028   -2.7822    0.0000 C   0  0  0  0  0  0  0  0  0  0  0  0
    5.3246   -2.7985    0.0000 C   0  0  0  0  0  0  0  0  0  0  0  0
    5.7257   -3.5161    0.0000 C   0  0  0  0  0  0  0  0  0  0  0  0
    5.3028   -4.2214    0.0000 C   0  0  0  0  0  0  0  0  0  0  0  0
    4.4783   -4.2092    0.0000 C   0  0  0  0  0  0  0  0  0  0  0  0
    4.0794   -3.4868    0.0000 C   0  0  0  0  0  0  0  0  0  0  0  0
    3.2550   -3.4733    0.0000 O   0  0  0  0  0  0  0  0  0  0  0  0
    4.0527   -4.9171    0.0000 C   0  0  0  0  0  0  0  0  0  0  0  0
    4.4560   -5.6372    0.0000 N   0  0  0  0  0  0  0  0  0  0  0  0
    3.2329   -4.9064    0.0000 O   0  0  0  0  0  0  0  0  0  0  0  0
    5.2874   -5.6514    0.0000 S   0  0  0  0  0  0  0  0  0  0  0  0
    6.1074   -5.6628    0.0000 O   0  0  0  0  0  0  0  0  0  0  0  0
    5.2989   -4.8216    0.0000 O   0  0  0  0  0  0  0  0  0  0  0  0
    5.2760   -6.4810    0.0000 O   0  0  0  0  0  0  0  0  0  0  0  0
    6.7437   -5.1254    0.0000 C   0  0  0  0  0  0  0  0  0  0  0  0
    7.5310   -5.4106    0.0000 C   0  0  1  0  0  0  0  0  0  0  0  0
    8.2170   -4.9512    0.0000 O   0  0  0  0  0  0  0  0  0  0  0  0
    8.8627   -5.4633    0.0000 C   0  0  2  0  0  0  0  0  0  0  0  0
    8.5692   -6.2381    0.0000 C   0  0  1  0  0  0  0  0  0  0  0  0
    7.7433   -6.1968    0.0000 C   0  0  2  0  0  0  0  0  0  0  0  0
    7.2254   -6.8407    0.0000 O   0  0  0  0  0  0  0  0  0  0  0  0
    9.0245   -6.9370    0.0000 O   0  0  0  0  0  0  0  0  0  0  0  0
    9.5502   -2.2945    0.0000 I   0  0  0  0  0  0  0  0  0  0  0  0
  1  5  1  0  0  0  0
 28  1  1  1  0  0  0
  3  1  1  0  0  0  0
  4  2  1  0  0  0  0
  2  3  2  0  0  0  0
  9  4  1  0  0  0  0
  4  5  2  0  0  0  0
  5  6  1  0  0  0  0
  6  7  2  0  0  0  0
  7  8  1  0  0  0  0
  7 33  1  0  0  0  0
  8  9  2  0  0  0  0
  9 10  1  0  0  0  0
 16 11  1  0  0  0  0
 11 12  2  0  0  0  0
 12 13  1  0  0  0  0
 13 14  2  0  0  0  0
 14 15  1  0  0  0  0
 15 18  1  0  0  0  0
 15 16  2  0  0  0  0
 16 17  1  0  0  0  0
 18 19  1  0  0  0  0
 18 20  2  0  0  0  0
 19 21  1  0  0  0  0
 21 22  1  0  0  0  0
 21 23  2  0  0  0  0
 21 24  2  0  0  0  0
 22 25  1  0  0  0  0
 26 25  1  1  0  0  0
 26 27  1  0  0  0  0
 30 26  1  0  0  0  0
 27 28  1  0  0  0  0
 28 29  1  0  0  0  0
 29 30  1  0  0  0  0
 29 32  1  6  0  0  0
 30 31  1  6  0  0  0
M  END
>  <Mol Weight>
592.322

>  <Formula>
C17H17IN6O8S

>  <chembl_id>
CHEMBL1199189

$$$$

  Mrv0541 06201412482D          

 48 53  0  0  0  0            999 V2000
    7.1667   -5.9542    0.0000 C   0  0  1  0  0  0  0  0  0  0  0  0
    6.4542   -6.3542    0.0000 C   0  0  1  0  0  0  0  0  0  0  0  0
    5.0292   -6.3542    0.0000 C   0  0  2  0  0  0  0  0  0  0  0  0
    7.1792   -5.1292    0.0000 C   0  0  1  0  0  0  0  0  0  0  0  0
    5.7417   -5.9375    0.0000 C   0  0  1  0  0  0  0  0  0  0  0  0
    5.0167   -7.1792    0.0000 C   0  0  2  0  0  0  0  0  0  0  0  0
    7.8917   -4.7167    0.0000 C   0  0  1  0  0  0  0  0  0  0  0  0
    4.3042   -7.5917    0.0000 C   0  0  0  0  0  0  0  0  0  0  0  0
    0.7417   -7.1958    0.0000 N   0  3  0  0  0  0  0  0  0  0  0  0
    8.0792   -3.9167    0.0000 C   0  0  2  0  0  0  0  0  0  0  0  0
    8.6125   -5.1500    0.0000 C   0  0  1  0  0  0  0  0  0  0  0  0
    3.6000   -7.1792    0.0000 C   0  0  1  0  0  0  0  0  0  0  0  0
    6.4542   -7.1792    0.0000 C   0  0  0  0  0  0  0  0  0  0  0  0
    2.1667   -7.1833    0.0000 C   0  0  0  0  0  0  0  0  0  0  0  0
    7.8667   -6.3667    0.0000 C   0  0  0  0  0  0  0  0  0  0  0  0
    6.4667   -4.7042    0.0000 C   0  0  0  0  0  0  0  0  0  0  0  0
    4.3042   -5.9375    0.0000 C   0  0  0  0  0  0  0  0  0  0  0  0
    5.7417   -5.1125    0.0000 C   0  0  0  0  0  0  0  0  0  0  0  0
    5.7292   -7.5917    0.0000 C   0  0  0  0  0  0  0  0  0  0  0  0
    2.8875   -7.5917    0.0000 O   0  0  0  0  0  0  0  0  0  0  0  0
    7.3875   -3.4750    0.0000 C   0  0  0  0  0  0  0  0  0  0  0  0
    8.9042   -3.8417    0.0000 C   0  0  0  0  0  0  0  0  0  0  0  0
   -0.7083   -6.4208    0.0000 C   0  0  0  0  0  0  0  0  0  0  0  0
    1.4583   -7.6000    0.0000 C   0  0  0  0  0  0  0  0  0  0  0  0
   -0.0083   -5.9833    0.0000 C   0  0  0  0  0  0  0  0  0  0  0  0
   -0.6792   -7.2500    0.0000 C   0  0  0  0  0  0  0  0  0  0  0  0
    8.6000   -5.9792    0.0000 C   0  0  0  0  0  0  0  0  0  0  0  0
    9.2292   -4.6125    0.0000 C   0  0  0  0  0  0  0  0  0  0  0  0
    3.6000   -6.3542    0.0000 C   0  0  0  0  0  0  0  0  0  0  0  0
   -1.4375   -6.0292    0.0000 N   0  0  0  0  0  0  0  0  0  0  0  0
    0.7208   -6.3750    0.0000 C   0  0  0  0  0  0  0  0  0  0  0  0
    0.0458   -7.6333    0.0000 C   0  0  0  0  0  0  0  0  0  0  0  0
    2.1625   -6.3583    0.0000 O   0  0  0  0  0  0  0  0  0  0  0  0
    7.4167   -2.6583    0.0000 C   0  0  0  0  0  0  0  0  0  0  0  0
    7.1542   -6.7750    0.0000 C   0  0  0  0  0  0  0  0  0  0  0  0
    6.4417   -5.5292    0.0000 C   0  0  0  0  0  0  0  0  0  0  0  0
    5.0167   -5.5292    0.0000 C   0  0  0  0  0  0  0  0  0  0  0  0
    3.8917   -8.2917    0.0000 C   0  0  0  0  0  0  0  0  0  0  0  0
    4.5167   -8.3875    0.0000 C   0  0  0  0  0  0  0  0  0  0  0  0
    9.3167   -5.5542    0.0000 C   0  0  0  0  0  0  0  0  0  0  0  0
   10.0292   -5.1458    0.0000 O   0  0  0  0  0  0  0  0  0  0  0  0
    6.6542   -3.8667    0.0000 C   0  0  0  0  0  0  0  0  0  0  0  0
   -1.4625   -5.2042    0.0000 C   0  0  0  0  0  0  0  0  0  0  0  0
   -2.1375   -6.4667    0.0000 C   0  0  0  0  0  0  0  0  0  0  0  0
    5.7292   -6.7625    0.0000 H   0  0  0  0  0  0  0  0  0  0  0  0
    7.1667   -4.3042    0.0000 H   0  0  0  0  0  0  0  0  0  0  0  0
    7.8917   -5.5417    0.0000 H   0  0  0  0  0  0  0  0  0  0  0  0
    5.0167   -7.9917    0.0000 H   0  0  0  0  0  0  0  0  0  0  0  0
  2  1  1  0  0  0  0
  3  5  1  0  0  0  0
  4  1  1  0  0  0  0
  5  2  1  0  0  0  0
  6 19  1  0  0  0  0
  7  4  1  0  0  0  0
  8  6  1  0  0  0  0
  9 24  1  0  0  0  0
 10  7  1  0  0  0  0
 11 27  1  0  0  0  0
 12  8  1  0  0  0  0
 13  2  1  0  0  0  0
 14 20  1  0  0  0  0
 15  1  1  0  0  0  0
 16  4  1  0  0  0  0
 17  3  1  0  0  0  0
 18 16  1  0  0  0  0
 19 13  1  0  0  0  0
 12 20  1  1  0  0  0
 10 21  1  6  0  0  0
 22 10  1  0  0  0  0
 23 26  1  0  0  0  0
 24 14  1  0  0  0  0
 25 31  1  0  0  0  0
 26 32  2  0  0  0  0
 27 15  1  0  0  0  0
 28 11  1  0  0  0  0
 29 17  1  0  0  0  0
 30 23  1  0  0  0  0
 31  9  2  0  0  0  0
 32  9  1  0  0  0  0
 33 14  2  0  0  0  0
 34 21  2  0  0  0  0
  1 35  1  6  0  0  0
  2 36  1  1  0  0  0
  3 37  1  1  0  0  0
 38  8  1  0  0  0  0
 39  8  1  0  0  0  0
 11 40  1  1  0  0  0
 41 40  1  0  0  0  0
 42 21  1  0  0  0  0
 43 30  1  0  0  0  0
 44 30  1  0  0  0  0
  5 45  1  6  0  0  0
  4 46  1  1  0  0  0
  7 47  1  6  0  0  0
  6 48  1  6  0  0  0
  7 11  1  0  0  0  0
  5 18  1  0  0  0  0
 28 22  1  0  0  0  0
  3  6  1  0  0  0  0
 29 12  1  0  0  0  0
 23 25  2  0  0  0  0
M  CHG  1   9   1
M  END
>  <Mol Weight>
605.9127

>  <Formula>
C39H61N2O3

>  <chembl_id>
CHEMBL1229322

$$$$

  Mrv0541 06201412482D          

 48 55  0  0  0  0            999 V2000
   -0.9375  -11.4333    0.0000 C   0  0  1  0  0  0  0  0  0  0  0  0
   -0.6500   -9.9625    0.0000 C   0  0  1  0  0  0  0  0  0  0  0  0
   -4.0750  -10.3833    0.0000 C   0  0  2  0  0  0  0  0  0  0  0  0
   -0.4625  -10.7667    0.0000 C   0  0  2  0  0  0  0  0  0  0  0  0
    0.3583  -10.8458    0.0000 C   0  0  2  0  0  0  0  0  0  0  0  0
   -2.5958  -10.4000    0.0000 C   0  0  1  0  0  0  0  0  0  0  0  0
    0.0667   -9.5375    0.0000 C   0  0  0  0  0  0  0  0  0  0  0  0
    0.6875  -10.0875    0.0000 C   0  0  2  0  0  0  0  0  0  0  0  0
    0.7042  -11.5917    0.0000 C   0  0  2  0  0  0  0  0  0  0  0  0
   -1.3833  -10.4083    0.0000 O   0  0  0  0  0  0  0  0  0  0  0  0
    0.2208  -12.2667    0.0000 C   0  0  2  0  0  0  0  0  0  0  0  0
   -0.6000  -12.1833    0.0000 O   0  0  0  0  0  0  0  0  0  0  0  0
    1.4917  -11.8417    0.0000 O   0  0  0  0  0  0  0  0  0  0  0  0
   -1.3458   -9.5208    0.0000 C   0  0  0  0  0  0  0  0  0  0  0  0
    1.5042  -12.6667    0.0000 C   0  0  0  0  0  0  0  0  0  0  0  0
   -4.7833   -9.9458    0.0000 C   0  0  2  0  0  0  0  0  0  0  0  0
    0.7167  -12.9333    0.0000 C   0  0  1  0  0  0  0  0  0  0  0  0
   -4.2708  -11.1833    0.0000 C   0  0  2  0  0  0  0  0  0  0  0  0
   -3.3375  -10.0333    0.0000 C   0  0  0  0  0  0  0  0  0  0  0  0
   -2.4167  -11.2042    0.0000 C   0  0  2  0  0  0  0  0  0  0  0  0
   -1.7167  -11.6500    0.0000 C   0  0  1  0  0  0  0  0  0  0  0  0
   -5.4125  -10.4792    0.0000 O   0  0  0  0  0  0  0  0  0  0  0  0
   -5.0958  -11.2458    0.0000 C   0  0  1  0  0  0  0  0  0  0  0  0
   -3.5292   -9.6333    0.0000 O   0  0  0  0  0  0  0  0  0  0  0  0
   -2.1500   -9.7000    0.0000 C   0  0  0  0  0  0  0  0  0  0  0  0
   -3.9625   -8.9458    0.0000 C   0  0  0  0  0  0  0  0  0  0  0  0
   -4.7417   -9.1333    0.0000 C   0  0  0  0  0  0  0  0  0  0  0  0
   -3.7667  -11.8333    0.0000 C   0  0  0  0  0  0  0  0  0  0  0  0
   -2.9417  -11.8375    0.0000 C   0  0  0  0  0  0  0  0  0  0  0  0
    0.1417   -8.7208    0.0000 O   0  0  0  0  0  0  0  0  0  0  0  0
    2.1750  -13.1458    0.0000 O   0  0  0  0  0  0  0  0  0  0  0  0
   -1.2042   -8.7083    0.0000 O   0  0  0  0  0  0  0  0  0  0  0  0
   -3.6542   -8.1833    0.0000 O   0  0  0  0  0  0  0  0  0  0  0  0
    1.2667   -9.5000    0.0000 O   0  0  0  0  0  0  0  0  0  0  0  0
   -0.6542   -9.1333    0.0000 C   0  0  0  0  0  0  0  0  0  0  0  0
   -1.7250  -12.4667    0.0000 O   0  0  0  0  0  0  0  0  0  0  0  0
    0.6792   -9.2625    0.0000 C   0  0  0  0  0  0  0  0  0  0  0  0
   -5.8125  -11.6500    0.0000 C   0  0  0  0  0  0  0  0  0  0  0  0
    0.4708  -13.7208    0.0000 C   0  0  0  0  0  0  0  0  0  0  0  0
   -5.1000  -12.0667    0.0000 C   0  0  0  0  0  0  0  0  0  0  0  0
   -5.8208  -12.4708    0.0000 O   0  0  0  0  0  0  0  0  0  0  0  0
   -2.4250  -12.0250    0.0000 H   0  0  0  0  0  0  0  0  0  0  0  0
   -4.4917  -11.9750    0.0000 H   0  0  0  0  0  0  0  0  0  0  0  0
   -0.1917  -12.9750    0.0000 H   0  0  0  0  0  0  0  0  0  0  0  0
    1.2833  -11.0042    0.0000 H   0  0  0  0  0  0  0  0  0  0  0  0
   -5.5000   -9.5333    0.0000 H   0  0  0  0  0  0  0  0  0  0  0  0
   -1.0500  -10.1750    0.0000 H   0  0  0  0  0  0  0  0  0  0  0  0
    1.0667  -10.4250    0.0000 H   0  0  0  0  0  0  0  0  0  0  0  0
  2  4  1  0  0  0  0
  3 19  1  0  0  0  0
  4  1  1  0  0  0  0
  5  4  1  0  0  0  0
  6 10  1  6  0  0  0
  7  2  1  0  0  0  0
  8  5  1  0  0  0  0
  9 11  1  0  0  0  0
  1 10  1  6  0  0  0
 11 12  1  0  0  0  0
 12  1  1  0  0  0  0
 13  9  1  0  0  0  0
 14  2  1  0  0  0  0
 15 17  1  0  0  0  0
 16  3  1  0  0  0  0
 17 11  1  0  0  0  0
 18 28  1  0  0  0  0
 19  6  1  0  0  0  0
 20 21  1  0  0  0  0
 21  1  1  0  0  0  0
 22 16  1  0  0  0  0
 23 18  1  0  0  0  0
  3 24  1  6  0  0  0
 25  6  1  0  0  0  0
 26 24  1  0  0  0  0
 27 16  1  0  0  0  0
 28 29  1  0  0  0  0
 29 20  1  0  0  0  0
 30  7  2  0  0  0  0
 31 15  2  0  0  0  0
 32 14  2  0  0  0  0
 33 26  2  0  0  0  0
 34  8  1  0  0  0  0
  2 35  1  1  0  0  0
 21 36  1  6  0  0  0
  8 37  1  1  0  0  0
 23 38  1  6  0  0  0
 17 39  1  1  0  0  0
 40 23  1  0  0  0  0
 41 38  1  0  0  0  0
 20 42  1  1  0  0  0
 18 43  1  6  0  0  0
 11 44  1  6  0  0  0
  9 45  1  6  0  0  0
 16 46  1  1  0  0  0
  4 47  1  1  0  0  0
  5 48  1  1  0  0  0
 20  6  1  0  0  0  0
  9  5  1  0  0  0  0
  7  8  1  0  0  0  0
 25 14  1  0  0  0  0
 13 15  1  0  0  0  0
  3 18  1  0  0  0  0
 23 22  1  0  0  0  0
 27 26  1  0  0  0  0
M  END
>  <Mol Weight>
576.5889

>  <Formula>
C29H36O12

>  <chembl_id>
CHEMBL1215356

$$$$

  Mrv0541 06201412482D          

 43 48  0  0  0  0            999 V2000
   -1.4953    1.1197    0.0000 C   0  0  1  0  0  0  0  0  0  0  0  0
   -2.2098    1.5321    0.0000 C   0  0  0  0  0  0  0  0  0  0  0  0
   -2.9243    1.1196    0.0000 C   0  0  0  0  0  0  0  0  0  0  0  0
   -2.9243    0.2946    0.0000 C   0  0  1  0  0  0  0  0  0  0  0  0
   -2.2098   -0.1179    0.0000 C   0  0  0  0  0  0  0  0  0  0  0  0
   -1.4953    0.2947    0.0000 C   0  0  1  0  0  0  0  0  0  0  0  0
   -0.7808    1.5322    0.0000 C   0  0  2  0  0  0  0  0  0  0  0  0
   -0.0664    1.1197    0.0000 C   0  0  1  0  0  0  0  0  0  0  0  0
   -0.0664    0.2947    0.0000 C   0  0  0  0  0  0  0  0  0  0  0  0
   -0.7809   -0.1178    0.0000 C   0  0  0  0  0  0  0  0  0  0  0  0
   -0.7809    2.3572    0.0000 C   0  0  0  0  0  0  0  0  0  0  0  0
   -0.0664    2.7697    0.0000 C   0  0  0  0  0  0  0  0  0  0  0  0
    0.6481    2.3572    0.0000 C   0  0  1  0  0  0  0  0  0  0  0  0
    0.6481    1.5322    0.0000 C   0  0  2  0  0  0  0  0  0  0  0  0
    1.4327    1.2773    0.0000 C   0  0  0  0  0  0  0  0  0  0  0  0
    1.9176    1.9447    0.0000 C   0  0  0  0  0  0  0  0  0  0  0  0
    1.4327    2.6121    0.0000 C   0  0  2  0  0  0  0  0  0  0  0  0
    1.6876    3.3968    0.0000 C   0  0  0  0  0  0  0  0  0  0  0  0
    2.4723    3.6517    0.0000 C   0  0  0  0  0  0  0  0  0  0  0  0
    2.4723    4.4767    0.0000 O   0  0  0  0  0  0  0  0  0  0  0  0
    1.6876    4.7316    0.0000 C   0  0  0  0  0  0  0  0  0  0  0  0
    1.2027    4.0642    0.0000 C   0  0  0  0  0  0  0  0  0  0  0  0
    1.4327    5.5162    0.0000 O   0  0  0  0  0  0  0  0  0  0  0  0
    0.6481    0.7072    0.0000 O   0  0  0  0  0  0  0  0  0  0  0  0
    0.6481    3.1822    0.0000 C   0  0  0  0  0  0  0  0  0  0  0  0
   -0.0664    1.9447    0.0000 H   0  0  0  0  0  0  0  0  0  0  0  0
   -0.7808    0.7072    0.0000 H   0  0  0  0  0  0  0  0  0  0  0  0
   -1.4953    1.9447    0.0000 C   0  0  0  0  0  0  0  0  0  0  0  0
   -2.2098    2.3572    0.0000 O   0  0  0  0  0  0  0  0  0  0  0  0
   -3.6388   -0.1179    0.0000 O   0  0  0  0  0  0  0  0  0  0  0  0
   -1.4953   -0.5303    0.0000 O   0  0  0  0  0  0  0  0  0  0  0  0
   -4.3533    0.2946    0.0000 C   0  0  2  0  0  0  0  0  0  0  0  0
   -4.3533    1.1196    0.0000 C   0  0  1  0  0  0  0  0  0  0  0  0
   -5.0677    1.5321    0.0000 C   0  0  1  0  0  0  0  0  0  0  0  0
   -5.7822    1.1197    0.0000 C   0  0  1  0  0  0  0  0  0  0  0  0
   -5.7822    0.2947    0.0000 C   0  0  2  0  0  0  0  0  0  0  0  0
   -5.0677   -0.1179    0.0000 O   0  0  0  0  0  0  0  0  0  0  0  0
   -5.0677    2.3571    0.0000 O   0  0  0  0  0  0  0  0  0  0  0  0
   -3.6388    1.5321    0.0000 O   0  0  0  0  0  0  0  0  0  0  0  0
   -6.4967    1.5322    0.0000 O   0  0  0  0  0  0  0  0  0  0  0  0
   -6.4967   -0.1179    0.0000 C   0  0  0  0  0  0  0  0  0  0  0  0
   -2.9243   -0.5304    0.0000 H   0  0  0  0  0  0  0  0  0  0  0  0
   -3.6388    2.3571    0.0000 C   0  0  0  0  0  0  0  0  0  0  0  0
  1  2  1  0  0  0  0
  2  3  1  0  0  0  0
  3  4  1  0  0  0  0
  4  5  1  0  0  0  0
  5  6  1  0  0  0  0
 10  6  1  0  0  0  0
  6  1  1  0  0  0  0
  1  7  1  0  0  0  0
  8  9  1  0  0  0  0
  9 10  1  0  0  0  0
 14  8  1  0  0  0  0
  8  7  1  0  0  0  0
  7 11  1  0  0  0  0
 11 12  1  0  0  0  0
 12 13  1  0  0  0  0
 13 17  1  0  0  0  0
 13 14  1  0  0  0  0
 14 15  1  0  0  0  0
 15 16  1  0  0  0  0
 16 17  1  0  0  0  0
 17 18  1  1  0  0  0
 18 19  1  0  0  0  0
 18 22  2  0  0  0  0
 19 20  1  0  0  0  0
 20 21  1  0  0  0  0
 21 22  1  0  0  0  0
 21 23  2  0  0  0  0
 14 24  1  1  0  0  0
 13 25  1  1  0  0  0
  8 26  1  1  0  0  0
  7 27  1  6  0  0  0
  1 28  1  1  0  0  0
 28 29  2  0  0  0  0
  4 30  1  0  0  0  0
  6 31  1  1  0  0  0
 32 30  1  1  0  0  0
 32 33  1  0  0  0  0
 37 32  1  0  0  0  0
 33 34  1  0  0  0  0
 34 35  1  0  0  0  0
 35 36  1  0  0  0  0
 36 37  1  0  0  0  0
 34 38  1  1  0  0  0
 33 39  1  1  0  0  0
 35 40  1  1  0  0  0
 36 41  1  6  0  0  0
  4 42  1  6  0  0  0
 39 43  1  0  0  0  0
M  END
>  <Mol Weight>
564.6644

>  <Formula>
C30H44O10

>  <chembl_id>
CHEMBL1172581

$$$$

  Mrv0541 06201412482D          

 43 47  0  0  0  0            999 V2000
   -1.3042  -16.4083    0.0000 C   0  0  0  0  0  0  0  0  0  0  0  0
   -0.5897  -15.9958    0.0000 N   0  0  0  0  0  0  0  0  0  0  0  0
   -2.0186  -15.9958    0.0000 C   0  0  0  0  0  0  0  0  0  0  0  0
   -1.3042  -17.2333    0.0000 O   0  0  0  0  0  0  0  0  0  0  0  0
   -2.1051  -15.1732    0.0000 C   0  0  0  0  0  0  0  0  0  0  0  0
   -2.9121  -15.0017    0.0000 O   0  0  0  0  0  0  0  0  0  0  0  0
   -3.3250  -15.7163    0.0000 C   0  0  0  0  0  0  0  0  0  0  0  0
   -2.7725  -16.3292    0.0000 N   0  0  0  0  0  0  0  0  0  0  0  0
    0.1248  -16.4083    0.0000 C   0  0  2  0  0  0  0  0  0  0  0  0
    0.8392  -15.9958    0.0000 C   0  0  0  0  0  0  0  0  0  0  0  0
    0.1248  -17.2333    0.0000 C   0  0  0  0  0  0  0  0  0  0  0  0
    1.5537  -16.4083    0.0000 N   0  0  0  0  0  0  0  0  0  0  0  0
    0.8392  -15.1708    0.0000 O   0  0  0  0  0  0  0  0  0  0  0  0
    2.2682  -15.9958    0.0000 C   0  0  0  0  0  0  0  0  0  0  0  0
    2.9827  -16.4083    0.0000 C   0  0  0  0  0  0  0  0  0  0  0  0
    3.6971  -15.9958    0.0000 N   0  0  0  0  0  0  0  0  0  0  0  0
    4.4116  -16.4083    0.0000 C   0  0  2  0  0  0  0  0  0  0  0  0
    2.9827  -17.2333    0.0000 O   0  0  0  0  0  0  0  0  0  0  0  0
    5.1261  -15.9958    0.0000 C   0  0  0  0  0  0  0  0  0  0  0  0
    5.8405  -16.4083    0.0000 N   0  0  0  0  0  0  0  0  0  0  0  0
    5.1261  -15.1708    0.0000 O   0  0  0  0  0  0  0  0  0  0  0  0
    4.4116  -17.2333    0.0000 C   0  0  0  0  0  0  0  0  0  0  0  0
    5.1261  -17.6458    0.0000 C   0  0  0  0  0  0  0  0  0  0  0  0
   -4.1475  -15.7166    0.0000 C   0  0  0  0  0  0  0  0  0  0  0  0
   -4.5585  -15.0000    0.0000 C   0  0  0  0  0  0  0  0  0  0  0  0
   -5.3827  -14.9987    0.0000 C   0  0  0  0  0  0  0  0  0  0  0  0
   -5.7969  -15.7132    0.0000 C   0  0  0  0  0  0  0  0  0  0  0  0
   -5.3808  -16.4305    0.0000 C   0  0  0  0  0  0  0  0  0  0  0  0
   -4.5580  -16.4283    0.0000 C   0  0  0  0  0  0  0  0  0  0  0  0
    6.5550  -15.9958    0.0000 C   0  0  0  0  0  0  0  0  0  0  0  0
    7.2686  -16.4120    0.0000 C   0  0  0  0  0  0  0  0  0  0  0  0
    7.9826  -16.0002    0.0000 C   0  0  0  0  0  0  0  0  0  0  0  0
    7.9830  -15.1743    0.0000 C   0  0  0  0  0  0  0  0  0  0  0  0
    7.2635  -14.7620    0.0000 C   0  0  0  0  0  0  0  0  0  0  0  0
    6.5525  -15.1762    0.0000 C   0  0  0  0  0  0  0  0  0  0  0  0
    7.2666  -17.2370    0.0000 F   0  0  0  0  0  0  0  0  0  0  0  0
    8.6970  -14.7609    0.0000 F   0  0  0  0  0  0  0  0  0  0  0  0
    5.2167  -18.4646    0.0000 N   0  0  0  0  0  0  0  0  0  0  0  0
    6.0237  -18.6361    0.0000 C   0  0  0  0  0  0  0  0  0  0  0  0
    6.4362  -17.9216    0.0000 N   0  0  0  0  0  0  0  0  0  0  0  0
    5.8841  -17.3086    0.0000 C   0  0  0  0  0  0  0  0  0  0  0  0
   -0.5897  -17.6458    0.0000 C   0  0  0  0  0  0  0  0  0  0  0  0
   -1.0083  -16.9292    0.0000 C   0  0  0  0  0  0  0  0  0  0  0  0
  1  3  1  0  0  0  0
 17 22  1  6  0  0  0
  9 11  1  0  0  0  0
 22 23  1  0  0  0  0
  1  2  1  0  0  0  0
 10 12  1  0  0  0  0
 24 25  2  0  0  0  0
  1  4  2  0  0  0  0
 25 26  1  0  0  0  0
 10 13  2  0  0  0  0
 26 27  2  0  0  0  0
  5  6  1  0  0  0  0
 27 28  1  0  0  0  0
 12 14  1  0  0  0  0
 28 29  2  0  0  0  0
 29 24  1  0  0  0  0
  7 24  1  0  0  0  0
  6  7  1  0  0  0  0
 20 30  1  0  0  0  0
 14 15  1  0  0  0  0
 30 31  2  0  0  0  0
  7  8  2  0  0  0  0
 31 32  1  0  0  0  0
 15 16  1  0  0  0  0
 32 33  2  0  0  0  0
  8  3  1  0  0  0  0
 33 34  1  0  0  0  0
 16 17  1  0  0  0  0
 34 35  2  0  0  0  0
 35 30  1  0  0  0  0
  3  5  2  0  0  0  0
 31 36  1  0  0  0  0
 15 18  2  0  0  0  0
 33 37  1  0  0  0  0
 23 38  1  0  0  0  0
  2  9  1  0  0  0  0
 17 19  1  0  0  0  0
 19 20  1  0  0  0  0
 38 39  2  0  0  0  0
 39 40  1  0  0  0  0
 40 41  1  0  0  0  0
 41 23  2  0  0  0  0
  9 10  1  6  0  0  0
 11 42  1  0  0  0  0
 19 21  2  0  0  0  0
 42 43  1  0  0  0  0
 43  2  1  0  0  0  0
M  END
>  <Mol Weight>
591.5654

>  <Formula>
C29H27F2N7O5

>  <chembl_id>
CHEMBL1075679

$$$$

  Mrv0541 06201412482D          

 43 48  0  0  0  0            999 V2000
    8.7813  -25.3516    0.0000 C   0  0  0  0  0  0  0  0  0  0  0  0
    7.9540  -25.3528    0.0000 C   0  0  0  0  0  0  0  0  0  0  0  0
    7.5431  -26.0688    0.0000 C   0  0  0  0  0  0  0  0  0  0  0  0
    7.9585  -26.7840    0.0000 C   0  0  0  0  0  0  0  0  0  0  0  0
    7.5400  -24.6391    0.0000 C   0  0  0  0  0  0  0  0  0  0  0  0
    7.9510  -23.9238    0.0000 O   0  0  0  0  0  0  0  0  0  0  0  0
    7.5370  -23.2102    0.0000 C   0  0  0  0  0  0  0  0  0  0  0  0
    7.9481  -22.4949    0.0000 N   0  0  0  0  0  0  0  0  0  0  0  0
    6.7120  -23.2119    0.0000 O   0  0  0  0  0  0  0  0  0  0  0  0
    8.7731  -22.4932    0.0000 C   0  0  0  0  0  0  0  0  0  0  0  0
    7.5341  -21.7813    0.0000 C   0  0  0  0  0  0  0  0  0  0  0  0
    6.7091  -21.7830    0.0000 C   0  0  0  0  0  0  0  0  0  0  0  0
    6.2951  -21.0694    0.0000 C   0  0  0  0  0  0  0  0  0  0  0  0
    9.1891  -23.2101    0.0000 C   0  0  0  0  0  0  0  0  0  0  0  0
   10.0105  -23.2104    0.0000 C   0  0  0  0  0  0  0  0  0  0  0  0
   10.4254  -22.4969    0.0000 N   0  0  0  0  0  0  0  0  0  0  0  0
   10.0126  -21.7814    0.0000 C   0  0  0  0  0  0  0  0  0  0  0  0
    9.1850  -21.7795    0.0000 C   0  0  0  0  0  0  0  0  0  0  0  0
   11.2506  -22.4982    0.0000 C   0  0  0  0  0  0  0  0  0  0  0  0
   11.7264  -23.1722    0.0000 C   0  0  1  0  0  0  0  0  0  0  0  0
   11.4587  -23.9486    0.0000 C   0  0  0  0  0  0  0  0  0  0  0  0
   12.1196  -24.4426    0.0000 N   0  0  0  0  0  0  0  0  0  0  0  0
   12.7936  -23.9667    0.0000 C   0  0  0  0  0  0  0  0  0  0  0  0
   12.5491  -23.1787    0.0000 C   0  0  2  0  0  0  0  0  0  0  0  0
   12.9548  -22.4597    0.0000 C   0  0  0  0  0  0  0  0  0  0  0  0
   13.7775  -22.4565    0.0000 C   0  0  0  0  0  0  0  0  0  0  0  0
   14.1827  -21.7388    0.0000 C   0  0  0  0  0  0  0  0  0  0  0  0
   13.7629  -21.0275    0.0000 C   0  0  0  0  0  0  0  0  0  0  0  0
   12.9337  -21.0385    0.0000 C   0  0  0  0  0  0  0  0  0  0  0  0
   12.5323  -21.7569    0.0000 C   0  0  0  0  0  0  0  0  0  0  0  0
   12.1086  -25.2675    0.0000 C   0  0  0  0  0  0  0  0  0  0  0  0
   11.3884  -25.6703    0.0000 O   0  0  0  0  0  0  0  0  0  0  0  0
   12.8912  -25.5284    0.0000 C   0  0  0  0  0  0  0  0  0  0  0  0
   13.1400  -26.3130    0.0000 C   0  0  0  0  0  0  0  0  0  0  0  0
   13.9649  -26.3193    0.0000 C   0  0  0  0  0  0  0  0  0  0  0  0
   14.2259  -25.5366    0.0000 C   0  0  0  0  0  0  0  0  0  0  0  0
   13.5621  -25.0467    0.0000 C   0  0  0  0  0  0  0  0  0  0  0  0
   12.1292  -22.4583    0.0000 O   0  0  0  0  0  0  0  0  0  0  0  0
    9.1961  -26.0622    0.0000 C   0  0  0  0  0  0  0  0  0  0  0  0
    8.7935  -26.7793    0.0000 C   0  0  0  0  0  0  0  0  0  0  0  0
    9.3510  -27.3839    0.0000 N   0  0  0  0  0  0  0  0  0  0  0  0
   10.0983  -27.0404    0.0000 O   0  0  0  0  0  0  0  0  0  0  0  0
   10.0025  -26.2237    0.0000 N   0  0  0  0  0  0  0  0  0  0  0  0
 20 21  1  0  0  0  0
 39  1  1  0  0  0  0
  8 10  1  0  0  0  0
  8 11  1  0  0  0  0
 21 22  1  0  0  0  0
 22 23  1  0  0  0  0
 23 24  1  0  0  0  0
 24 20  1  0  0  0  0
  2  5  1  0  0  0  0
 24 25  1  1  0  0  0
 11 12  1  0  0  0  0
 25 26  2  0  0  0  0
  2  3  1  0  0  0  0
 26 27  1  0  0  0  0
 12 13  2  0  0  0  0
 27 28  2  0  0  0  0
 10 14  1  0  0  0  0
 28 29  1  0  0  0  0
  5  6  1  0  0  0  0
 29 30  2  0  0  0  0
 30 25  1  0  0  0  0
  1  2  2  0  0  0  0
 22 31  1  0  0  0  0
  6  7  1  0  0  0  0
 31 32  2  0  0  0  0
  3  4  2  0  0  0  0
 31 33  1  0  0  0  0
 33 34  1  0  0  0  0
  7  8  1  0  0  0  0
 10 18  1  0  0  0  0
 14 15  1  0  0  0  0
 15 16  1  0  0  0  0
 34 35  1  0  0  0  0
 35 36  1  0  0  0  0
 36 37  1  0  0  0  0
 37 33  1  0  0  0  0
 16 17  1  0  0  0  0
 24 38  1  0  0  0  0
 39 40  1  0  0  0  0
 17 18  1  0  0  0  0
  4 40  1  0  0  0  0
 16 19  1  0  0  0  0
  7  9  2  0  0  0  0
 20 19  1  6  0  0  0
 40 41  2  0  0  0  0
 41 42  1  0  0  0  0
 42 43  1  0  0  0  0
 43 39  2  0  0  0  0
M  END
>  <Mol Weight>
587.7091

>  <Formula>
C33H41N5O5

>  <chembl_id>
CHEMBL1172041

$$$$

  Mrv0541 06201412482D          

 38 39  0  0  0  0            999 V2000
    1.3715  -30.6356    0.0000 N   0  0  0  0  0  0  0  0  0  0  0  0
    2.1969  -30.6440    0.0000 N   0  0  0  0  0  0  0  0  0  0  0  0
    4.6731  -30.6898    0.0000 C   0  0  0  0  0  0  0  0  0  0  0  0
   -1.1631  -30.5980    0.0000 C   0  0  0  0  0  0  0  0  0  0  0  0
   -0.3377  -30.6105    0.0000 N   0  0  0  0  0  0  0  0  0  0  0  0
    3.8477  -30.6731    0.0000 N   0  0  0  0  0  0  0  0  0  0  0  0
    7.5244  -32.8825    0.0000 C   0  0  0  0  0  0  0  0  0  0  0  0
   -4.0853  -32.6949    0.0000 C   0  0  0  0  0  0  0  0  0  0  0  0
    0.9296  -31.3693    0.0000 C   0  0  0  0  0  0  0  0  0  0  0  0
    2.5971  -31.3693    0.0000 C   0  0  0  0  0  0  0  0  0  0  0  0
    0.9505  -29.8936    0.0000 C   0  0  0  0  0  0  0  0  0  0  0  0
    2.6180  -29.9352    0.0000 C   0  0  0  0  0  0  0  0  0  0  0  0
    5.0983  -29.9811    0.0000 S   0  0  0  0  0  0  0  0  0  0  0  0
   -1.5633  -29.8727    0.0000 S   0  0  0  0  0  0  0  0  0  0  0  0
    3.4434  -29.9519    0.0000 C   0  0  0  0  0  0  0  0  0  0  0  0
    0.0750  -31.3568    0.0000 C   0  0  0  0  0  0  0  0  0  0  0  0
    3.4224  -31.3818    0.0000 C   0  0  0  0  0  0  0  0  0  0  0  0
    0.1000  -29.8811    0.0000 C   0  0  0  0  0  0  0  0  0  0  0  0
    7.0951  -33.5912    0.0000 O   0  0  0  0  0  0  0  0  0  0  0  0
   -4.9149  -32.6824    0.0000 O   0  0  0  0  0  0  0  0  0  0  0  0
   -3.6893  -33.4161    0.0000 O   0  0  0  0  0  0  0  0  0  0  0  0
    8.3457  -32.8950    0.0000 O   0  0  0  0  0  0  0  0  0  0  0  0
    5.0732  -31.4109    0.0000 N   0  0  0  0  0  0  0  0  0  0  0  0
   -1.5883  -31.3026    0.0000 N   0  0  0  0  0  0  0  0  0  0  0  0
    7.4953  -34.3207    0.0000 C   0  0  0  0  0  0  0  0  0  0  0  0
   -5.3443  -33.3953    0.0000 C   0  0  0  0  0  0  0  0  0  0  0  0
    7.1242  -32.1613    0.0000 N   0  0  0  0  0  0  0  0  0  0  0  0
   -3.6601  -31.9862    0.0000 N   0  0  0  0  0  0  0  0  0  0  0  0
    5.8986  -31.4234    0.0000 C   0  0  0  0  0  0  0  0  0  0  0  0
   -2.4137  -31.2901    0.0000 C   0  0  0  0  0  0  0  0  0  0  0  0
   -2.8347  -31.9987    0.0000 C   0  0  0  0  0  0  0  0  0  0  0  0
    6.2988  -32.1447    0.0000 C   0  0  0  0  0  0  0  0  0  0  0  0
    7.0659  -35.0252    0.0000 C   0  0  0  0  0  0  0  0  0  0  0  0
    8.3123  -34.3332    0.0000 C   0  0  0  0  0  0  0  0  0  0  0  0
    7.8996  -35.0377    0.0000 C   0  0  0  0  0  0  0  0  0  0  0  0
   -6.1655  -33.3786    0.0000 C   0  0  0  0  0  0  0  0  0  0  0  0
   -4.9482  -34.1122    0.0000 C   0  0  0  0  0  0  0  0  0  0  0  0
   -5.7570  -34.1039    0.0000 C   0  0  0  0  0  0  0  0  0  0  0  0
  2  1  1  0  0  0  0
  3  6  1  0  0  0  0
  4  5  1  0  0  0  0
  5 18  1  0  0  0  0
  6 17  1  0  0  0  0
  7 27  1  0  0  0  0
  8 28  1  0  0  0  0
  9  1  1  0  0  0  0
 10  2  1  0  0  0  0
 11  1  1  0  0  0  0
 12  2  1  0  0  0  0
 13  3  2  0  0  0  0
 14  4  2  0  0  0  0
 15 12  1  0  0  0  0
 16  9  1  0  0  0  0
 17 10  1  0  0  0  0
 18 11  1  0  0  0  0
 19  7  1  0  0  0  0
 20  8  1  0  0  0  0
 21  8  2  0  0  0  0
 22  7  2  0  0  0  0
 23  3  1  0  0  0  0
 24  4  1  0  0  0  0
 25 19  1  0  0  0  0
 26 20  1  0  0  0  0
 27 32  1  0  0  0  0
 28 31  1  0  0  0  0
 29 23  1  0  0  0  0
 30 24  1  0  0  0  0
 31 30  1  0  0  0  0
 32 29  1  0  0  0  0
 33 25  1  0  0  0  0
 34 25  1  0  0  0  0
 35 25  1  0  0  0  0
 36 26  1  0  0  0  0
 37 26  1  0  0  0  0
 38 26  1  0  0  0  0
 16  5  1  0  0  0  0
 15  6  1  0  0  0  0
M  END
>  <Mol Weight>
574.803

>  <Formula>
C24H46N8O4S2

>  <chembl_id>
CHEMBL1213185

$$$$

  Mrv0541 06201412482D          

 44 47  0  0  0  0            999 V2000
    2.1770    6.9195    0.0000 C   0  0  0  0  0  0  0  0  0  0  0  0
   -1.3195   -3.5569    0.0000 N   0  0  0  0  0  0  0  0  0  0  0  0
    2.1770    3.5702    0.0000 C   0  0  0  0  0  0  0  0  0  0  0  0
   -2.0296   -3.9655    0.0000 C   0  0  0  0  0  0  0  0  0  0  0  0
    2.1770    4.4142    0.0000 C   0  0  0  0  0  0  0  0  0  0  0  0
    0.0871   -2.6995    0.0000 N   0  0  0  0  0  0  0  0  0  0  0  0
    2.1703    7.7434    0.0000 O   0  0  0  0  0  0  0  0  0  0  0  0
    2.8804    6.4975    0.0000 N   0  0  0  0  0  0  0  0  0  0  0  0
    1.4737    6.4975    0.0000 O   0  0  0  0  0  0  0  0  0  0  0  0
   -2.0296   -4.8028    0.0000 C   0  0  0  0  0  0  0  0  0  0  0  0
   -2.7330   -3.5569    0.0000 C   0  0  0  0  0  0  0  0  0  0  0  0
   -0.6162   -3.9655    0.0000 C   0  0  0  0  0  0  0  0  0  0  0  0
   -1.3195   -2.6995    0.0000 C   0  0  0  0  0  0  0  0  0  0  0  0
    2.1770    2.7463    0.0000 C   0  0  0  0  0  0  0  0  0  0  0  0
   -3.4363   -3.9655    0.0000 C   0  0  0  0  0  0  0  0  0  0  0  0
   -2.7330   -2.6995    0.0000 C   0  0  0  0  0  0  0  0  0  0  0  0
   -2.7330   -5.2248    0.0000 C   0  0  0  0  0  0  0  0  0  0  0  0
   -1.3195   -5.2248    0.0000 C   0  0  0  0  0  0  0  0  0  0  0  0
   -0.6162   -2.2976    0.0000 C   0  0  0  0  0  0  0  0  0  0  0  0
    0.0871   -3.5569    0.0000 C   0  0  0  0  0  0  0  0  0  0  0  0
   -2.0296   -6.4774    0.0000 C   0  0  0  0  0  0  0  0  0  0  0  0
   -4.1530   -2.6995    0.0000 C   0  0  0  0  0  0  0  0  0  0  0  0
    2.1770    1.0650    0.0000 C   0  0  0  0  0  0  0  0  0  0  0  0
    3.5770    6.9195    0.0000 O   0  0  0  0  0  0  0  0  0  0  0  0
   -4.1530   -3.5569    0.0000 C   0  0  0  0  0  0  0  0  0  0  0  0
   -3.4363   -2.2976    0.0000 C   0  0  0  0  0  0  0  0  0  0  0  0
   -2.7330   -6.0554    0.0000 C   0  0  0  0  0  0  0  0  0  0  0  0
   -1.3195   -6.0554    0.0000 C   0  0  0  0  0  0  0  0  0  0  0  0
   -2.0296   -7.3013    0.0000 F   0  0  0  0  0  0  0  0  0  0  0  0
   -4.8563   -2.2775    0.0000 F   0  0  0  0  0  0  0  0  0  0  0  0
    2.8937    2.3243    0.0000 C   0  0  0  0  0  0  0  0  0  0  0  0
    1.4737    2.3243    0.0000 C   0  0  0  0  0  0  0  0  0  0  0  0
    2.8937    1.4870    0.0000 C   0  0  0  0  0  0  0  0  0  0  0  0
    1.4737    1.4870    0.0000 C   0  0  0  0  0  0  0  0  0  0  0  0
    2.1770    0.2344    0.0000 O   0  0  0  0  0  0  0  0  0  0  0  0
    2.1770    5.2582    0.0000 C   0  0  0  0  0  0  0  0  0  0  0  0
    0.7905   -2.2775    0.0000 C   0  0  0  0  0  0  0  0  0  0  0  0
    1.4670    8.1453    0.0000 C   0  0  0  0  0  0  0  0  0  0  0  0
    2.8804    5.6669    0.0000 C   0  0  0  0  0  0  0  0  0  0  0  0
    1.4737   -0.1809    0.0000 C   0  0  0  0  0  0  0  0  0  0  0  0
    0.7704   -1.4469    0.0000 C   0  0  0  0  0  0  0  0  0  0  0  0
    1.4670    8.9692    0.0000 C   0  0  0  0  0  0  0  0  0  0  0  0
    0.7503    7.7434    0.0000 C   0  0  0  0  0  0  0  0  0  0  0  0
    1.4737   -1.0115    0.0000 C   0  0  0  0  0  0  0  0  0  0  0  0
  2 12  1  0  0  0  0
  3  5  3  0  0  0  0
  4  2  1  0  0  0  0
  5 36  1  0  0  0  0
  6 37  1  0  0  0  0
  7  1  1  0  0  0  0
  8  1  1  0  0  0  0
  9  1  2  0  0  0  0
 10  4  1  0  0  0  0
 11  4  1  0  0  0  0
 12 20  1  0  0  0  0
 13 19  1  0  0  0  0
 14  3  1  0  0  0  0
 15 11  1  0  0  0  0
 16 11  2  0  0  0  0
 17 10  1  0  0  0  0
 18 10  2  0  0  0  0
 19  6  1  0  0  0  0
 20  6  1  0  0  0  0
 21 28  2  0  0  0  0
 22 26  2  0  0  0  0
 23 34  1  0  0  0  0
 24  8  1  0  0  0  0
 25 15  2  0  0  0  0
 26 16  1  0  0  0  0
 27 17  2  0  0  0  0
 28 18  1  0  0  0  0
 29 21  1  0  0  0  0
 30 22  1  0  0  0  0
 31 14  2  0  0  0  0
 32 14  1  0  0  0  0
 33 31  1  0  0  0  0
 34 32  2  0  0  0  0
 35 23  1  0  0  0  0
 36 39  1  0  0  0  0
 37 41  1  0  0  0  0
 38  7  1  0  0  0  0
 39  8  1  0  0  0  0
 40 35  1  0  0  0  0
 41 44  1  0  0  0  0
 42 38  1  0  0  0  0
 43 38  1  0  0  0  0
 44 40  1  0  0  0  0
 33 23  2  0  0  0  0
 13  2  1  0  0  0  0
 22 25  1  0  0  0  0
 21 27  1  0  0  0  0
M  END
>  <Mol Weight>
605.7145

>  <Formula>
C35H41F2N3O4

>  <chembl_id>
CHEMBL180233

$$$$

  Mrv0541 06201412482D          

 41 45  0  0  0  0            999 V2000
    7.8944  -12.9625    0.0000 C   0  0  0  0  0  0  0  0  0  0  0  0
    7.8932  -13.7898    0.0000 C   0  0  0  0  0  0  0  0  0  0  0  0
    8.6081  -14.2027    0.0000 C   0  0  0  0  0  0  0  0  0  0  0  0
    9.3245  -13.7894    0.0000 C   0  0  0  0  0  0  0  0  0  0  0  0
    9.3216  -12.9588    0.0000 C   0  0  0  0  0  0  0  0  0  0  0  0
    8.6062  -12.5497    0.0000 C   0  0  0  0  0  0  0  0  0  0  0  0
   10.0346  -12.5436    0.0000 N   0  0  0  0  0  0  0  0  0  0  0  0
   10.7506  -12.9534    0.0000 C   0  0  0  0  0  0  0  0  0  0  0  0
   11.4635  -12.5383    0.0000 N   0  0  0  0  0  0  0  0  0  0  0  0
   10.7537  -13.7784    0.0000 O   0  0  0  0  0  0  0  0  0  0  0  0
   12.1795  -12.9481    0.0000 C   0  0  0  0  0  0  0  0  0  0  0  0
   12.1795  -13.7719    0.0000 C   0  0  0  0  0  0  0  0  0  0  0  0
   12.8947  -14.1816    0.0000 C   0  0  0  0  0  0  0  0  0  0  0  0
   13.6086  -13.7664    0.0000 C   0  0  0  0  0  0  0  0  0  0  0  0
   13.6028  -12.9371    0.0000 C   0  0  0  0  0  0  0  0  0  0  0  0
   12.8870  -12.5312    0.0000 C   0  0  0  0  0  0  0  0  0  0  0  0
   14.3102  -12.5208    0.0000 C   0  0  0  0  0  0  0  0  0  0  0  0
   15.0109  -11.2799    0.0000 C   0  0  0  0  0  0  0  0  0  0  0  0
   14.3029  -11.6992    0.0000 N   0  0  0  0  0  0  0  0  0  0  0  0
   16.5211  -11.4293    0.0000 N   0  0  0  0  0  0  0  0  0  0  0  0
   15.7334  -11.6869    0.0000 C   0  0  0  0  0  0  0  0  0  0  0  0
   15.7361  -12.5164    0.0000 N   0  0  0  0  0  0  0  0  0  0  0  0
   16.5265  -12.7688    0.0000 C   0  0  0  0  0  0  0  0  0  0  0  0
   17.0095  -12.0944    0.0000 C   0  0  0  0  0  0  0  0  0  0  0  0
   15.0020  -10.4549    0.0000 N   0  0  0  0  0  0  0  0  0  0  0  0
   15.7119  -10.0347    0.0000 C   0  0  0  0  0  0  0  0  0  0  0  0
   15.7030   -9.2097    0.0000 C   0  0  0  0  0  0  0  0  0  0  0  0
   16.4135   -8.7911    0.0000 C   0  0  0  0  0  0  0  0  0  0  0  0
   16.4049   -7.9669    0.0000 C   0  0  0  0  0  0  0  0  0  0  0  0
   15.6855   -7.5613    0.0000 N   0  0  0  0  0  0  0  0  0  0  0  0
   14.9732   -7.9860    0.0000 C   0  0  0  0  0  0  0  0  0  0  0  0
   14.9853   -8.8088    0.0000 C   0  0  0  0  0  0  0  0  0  0  0  0
   15.0282  -12.9271    0.0000 C   0  0  0  0  0  0  0  0  0  0  0  0
    8.6079  -15.0277    0.0000 C   0  0  0  0  0  0  0  0  0  0  0  0
    8.6053  -11.7305    0.0000 O   0  0  0  0  0  0  0  0  0  0  0  0
    7.8896  -11.3201    0.0000 C   0  0  0  0  0  0  0  0  0  0  0  0
    7.1804  -14.1980    0.0000 O   0  0  0  0  0  0  0  0  0  0  0  0
    7.1797  -15.0230    0.0000 C   0  0  0  0  0  0  0  0  0  0  0  0
    9.3222  -15.4404    0.0000 F   0  0  0  0  0  0  0  0  0  0  0  0
    7.8933  -15.4400    0.0000 F   0  0  0  0  0  0  0  0  0  0  0  0
    8.6000  -15.8500    0.0000 F   0  0  0  0  0  0  0  0  0  0  0  0
 15 17  1  0  0  0  0
 21 22  1  0  0  0  0
  4  5  1  0  0  0  0
  8 10  2  0  0  0  0
  2  3  1  0  0  0  0
  9 11  1  0  0  0  0
  5  6  2  0  0  0  0
 20 21  2  0  0  0  0
 22 23  1  0  0  0  0
 23 24  2  0  0  0  0
 24 20  1  0  0  0  0
 11 12  2  0  0  0  0
 18 25  1  0  0  0  0
  6  1  1  0  0  0  0
 25 26  1  0  0  0  0
 12 13  1  0  0  0  0
 26 27  1  0  0  0  0
  1  2  2  0  0  0  0
 27 28  2  0  0  0  0
 13 14  2  0  0  0  0
 28 29  1  0  0  0  0
  5  7  1  0  0  0  0
 29 30  2  0  0  0  0
 14 15  1  0  0  0  0
 30 31  1  0  0  0  0
  3  4  2  0  0  0  0
 31 32  2  0  0  0  0
 32 27  1  0  0  0  0
 15 16  2  0  0  0  0
 17 33  2  0  0  0  0
 16 11  1  0  0  0  0
  3 34  1  0  0  0  0
  7  8  1  0  0  0  0
 33 22  1  0  0  0  0
 35 36  1  0  0  0  0
  6 35  1  0  0  0  0
 21 18  1  0  0  0  0
 37 38  1  0  0  0  0
  2 37  1  0  0  0  0
  8  9  1  0  0  0  0
 34 39  1  0  0  0  0
 18 19  2  0  0  0  0
 34 40  1  0  0  0  0
 19 17  1  0  0  0  0
 34 41  1  0  0  0  0
M  END
>  <Mol Weight>
563.5305

>  <Formula>
C28H24F3N7O3

>  <chembl_id>
CHEMBL1075666

$$$$

  Mrv0541 06201412482D          

 42 47  0  0  0  0            999 V2000
   16.5589   -9.3581    0.0000 C   0  0  0  0  0  0  0  0  0  0  0  0
   16.5576  -10.1873    0.0000 C   0  0  0  0  0  0  0  0  0  0  0  0
   17.2727  -10.6033    0.0000 C   0  0  0  0  0  0  0  0  0  0  0  0
   17.9940  -10.1867    0.0000 C   0  0  0  0  0  0  0  0  0  0  0  0
   17.9908   -9.3540    0.0000 C   0  0  0  0  0  0  0  0  0  0  0  0
   17.2707   -8.9467    0.0000 C   0  0  0  0  0  0  0  0  0  0  0  0
   15.8420   -8.9476    0.0000 C   0  0  0  0  0  0  0  0  0  0  0  0
   15.8414   -8.1209    0.0000 C   0  0  1  0  0  0  0  0  0  0  0  0
   15.1245   -7.7059    0.0000 N   0  0  0  0  0  0  0  0  0  0  0  0
   16.5575   -7.7047    0.0000 C   0  0  0  0  0  0  0  0  0  0  0  0
   17.2743   -8.1197    0.0000 O   0  0  0  0  0  0  0  0  0  0  0  0
   14.4083   -8.1221    0.0000 C   0  0  0  0  0  0  0  0  0  0  0  0
   13.6961   -7.7071    0.0000 C   0  0  1  0  0  0  0  0  0  0  0  0
   14.4090   -8.9488    0.0000 O   0  0  0  0  0  0  0  0  0  0  0  0
   12.9798   -8.1233    0.0000 N   0  0  0  0  0  0  0  0  0  0  0  0
   12.9805   -8.9500    0.0000 C   0  0  0  0  0  0  0  0  0  0  0  0
   12.2644   -9.3616    0.0000 O   0  0  0  0  0  0  0  0  0  0  0  0
   13.6974   -9.3604    0.0000 O   0  0  0  0  0  0  0  0  0  0  0  0
   11.5476   -8.9512    0.0000 C   0  0  0  0  0  0  0  0  0  0  0  0
   10.8314   -9.3622    0.0000 C   0  0  0  0  0  0  0  0  0  0  0  0
   10.9323  -10.1792    0.0000 C   0  0  0  0  0  0  0  0  0  0  0  0
   10.1826  -10.5265    0.0000 C   0  0  0  0  0  0  0  0  0  0  0  0
   10.1080  -11.3460    0.0000 C   0  0  0  0  0  0  0  0  0  0  0  0
   10.7823  -11.8191    0.0000 C   0  0  0  0  0  0  0  0  0  0  0  0
   11.5331  -11.4715    0.0000 C   0  0  0  0  0  0  0  0  0  0  0  0
   11.6041  -10.6530    0.0000 C   0  0  0  0  0  0  0  0  0  0  0  0
    9.6229   -9.9213    0.0000 C   0  0  0  0  0  0  0  0  0  0  0  0
   10.0245   -9.2030    0.0000 C   0  0  0  0  0  0  0  0  0  0  0  0
    9.6073   -8.4959    0.0000 C   0  0  0  0  0  0  0  0  0  0  0  0
    8.7841   -8.5058    0.0000 C   0  0  0  0  0  0  0  0  0  0  0  0
    8.3799   -9.2288    0.0000 C   0  0  0  0  0  0  0  0  0  0  0  0
    8.8040   -9.9330    0.0000 C   0  0  0  0  0  0  0  0  0  0  0  0
   13.6953   -6.8804    0.0000 C   0  0  0  0  0  0  0  0  0  0  0  0
   14.4072   -6.4684    0.0000 C   0  0  0  0  0  0  0  0  0  0  0  0
   15.0858   -5.3113    0.0000 N   0  0  0  0  0  0  0  0  0  0  0  0
   14.3272   -5.6433    0.0000 C   0  0  0  0  0  0  0  0  0  0  0  0
   15.6347   -5.9319    0.0000 C   0  0  0  0  0  0  0  0  0  0  0  0
   15.2122   -6.6427    0.0000 C   0  0  0  0  0  0  0  0  0  0  0  0
   15.6192   -7.3603    0.0000 C   0  0  0  0  0  0  0  0  0  0  0  0
   16.4441   -7.3683    0.0000 C   0  0  0  0  0  0  0  0  0  0  0  0
   16.8603   -6.6529    0.0000 C   0  0  0  0  0  0  0  0  0  0  0  0
   16.4555   -5.9382    0.0000 C   0  0  0  0  0  0  0  0  0  0  0  0
 27 22  1  0  0  0  0
 21 20  1  0  0  0  0
  8 10  1  0  0  0  0
  2  3  1  0  0  0  0
 21 22  2  0  0  0  0
 10 11  1  0  0  0  0
 22 23  1  0  0  0  0
  5  6  2  0  0  0  0
 23 24  2  0  0  0  0
  9 12  1  0  0  0  0
 24 25  1  0  0  0  0
  6  1  1  0  0  0  0
 25 26  2  0  0  0  0
 26 21  1  0  0  0  0
 12 13  1  0  0  0  0
  1  2  2  0  0  0  0
 27 28  2  0  0  0  0
 12 14  2  0  0  0  0
 28 29  1  0  0  0  0
  1  7  1  0  0  0  0
 29 30  2  0  0  0  0
 13 15  1  0  0  0  0
 30 31  1  0  0  0  0
  3  4  2  0  0  0  0
 31 32  2  0  0  0  0
 32 27  1  0  0  0  0
 15 16  1  0  0  0  0
 13 33  1  1  0  0  0
  8  7  1  1  0  0  0
 33 34  1  0  0  0  0
 34 38  1  0  0  0  0
 16 17  1  0  0  0  0
 37 35  1  0  0  0  0
 35 36  1  0  0  0  0
 36 34  2  0  0  0  0
 16 18  2  0  0  0  0
  8  9  1  0  0  0  0
 37 38  2  0  0  0  0
 17 19  1  0  0  0  0
 38 39  1  0  0  0  0
  4  5  1  0  0  0  0
 39 40  2  0  0  0  0
 19 20  1  0  0  0  0
 40 41  1  0  0  0  0
 20 28  1  0  0  0  0
 41 42  2  0  0  0  0
 42 37  1  0  0  0  0
M  END
>  <Mol Weight>
559.6542

>  <Formula>
C35H33N3O4

>  <chembl_id>
CHEMBL1165737

$$$$

  Mrv0541 06201412482D          

 43 48  0  0  1  0            999 V2000
    4.6292   -2.7625    0.0000 N   0  0  0  0  0  0  0  0  0  0  0  0
    2.4917    0.9458    0.0000 C   0  0  0  0  0  0  0  0  0  0  0  0
    2.4917    0.1208    0.0000 N   0  0  0  0  0  0  0  0  0  0  0  0
    3.2125    1.3583    0.0000 C   0  0  2  0  0  0  0  0  0  0  0  0
    4.6417    1.3583    0.0000 C   0  0  0  0  0  0  0  0  0  0  0  0
    5.4167   -2.5042    0.0000 C   0  0  0  0  0  0  0  0  0  0  0  0
    3.9250    0.9458    0.0000 N   0  0  0  0  0  0  0  0  0  0  0  0
    2.4917   -1.5292    0.0000 N   0  0  0  0  0  0  0  0  0  0  0  0
    3.2042   -2.7625    0.0000 C   0  0  0  0  0  0  0  0  0  0  0  0
    5.9000   -3.1792    0.0000 N   0  0  0  0  0  0  0  0  0  0  0  0
    5.3500    0.1208    0.0000 N   0  0  0  0  0  0  0  0  0  0  0  0
    5.3542    0.9458    0.0000 C   0  0  2  0  0  0  0  0  0  0  0  0
    3.9167   -2.3417    0.0000 C   0  0  0  0  0  0  0  0  0  0  0  0
    2.4917   -2.3500    0.0000 C   0  0  0  0  0  0  0  0  0  0  0  0
    6.0625    1.3625    0.0000 C   0  0  0  0  0  0  0  0  0  0  0  0
    5.4042   -3.8417    0.0000 C   0  0  0  0  0  0  0  0  0  0  0  0
    6.7792    0.9458    0.0000 C   0  0  0  0  0  0  0  0  0  0  0  0
    4.6250   -3.5875    0.0000 C   0  0  0  0  0  0  0  0  0  0  0  0
    3.2125    2.1833    0.0000 C   0  0  0  0  0  0  0  0  0  0  0  0
    6.0625   -0.2875    0.0000 C   0  0  0  0  0  0  0  0  0  0  0  0
    1.7875   -0.2917    0.0000 C   0  0  0  0  0  0  0  0  0  0  0  0
    3.2042   -0.2917    0.0000 C   0  0  0  0  0  0  0  0  0  0  0  0
    3.2042   -1.1167    0.0000 C   0  0  0  0  0  0  0  0  0  0  0  0
    1.7875   -1.1167    0.0000 C   0  0  0  0  0  0  0  0  0  0  0  0
    1.7792    1.3583    0.0000 O   0  0  0  0  0  0  0  0  0  0  0  0
    4.6417    2.1833    0.0000 O   0  0  0  0  0  0  0  0  0  0  0  0
    6.7667    0.1125    0.0000 C   0  0  0  0  0  0  0  0  0  0  0  0
    2.4917    2.5958    0.0000 C   0  0  0  0  0  0  0  0  0  0  0  0
    1.0667    3.4333    0.0000 C   0  0  0  0  0  0  0  0  0  0  0  0
    0.3542    3.8458    0.0000 Cl  0  0  0  0  0  0  0  0  0  0  0  0
    1.7875    2.1958    0.0000 C   0  0  0  0  0  0  0  0  0  0  0  0
    2.5000    3.4333    0.0000 C   0  0  0  0  0  0  0  0  0  0  0  0
    1.7875    3.8458    0.0000 C   0  0  0  0  0  0  0  0  0  0  0  0
    1.0750    2.6000    0.0000 C   0  0  0  0  0  0  0  0  0  0  0  0
    3.2125   -3.5792    0.0000 C   0  0  0  0  0  0  0  0  0  0  0  0
    5.8250   -1.7917    0.0000 C   0  0  0  0  0  0  0  0  0  0  0  0
    1.7792   -2.7625    0.0000 C   0  0  0  0  0  0  0  0  0  0  0  0
    7.4917    1.3583    0.0000 C   0  0  0  0  0  0  0  0  0  0  0  0
    7.4792   -0.3042    0.0000 C   0  0  0  0  0  0  0  0  0  0  0  0
    2.4917   -4.0000    0.0000 C   0  0  0  0  0  0  0  0  0  0  0  0
    1.7792   -3.5875    0.0000 C   0  0  0  0  0  0  0  0  0  0  0  0
    8.2125    0.9333    0.0000 C   0  0  0  0  0  0  0  0  0  0  0  0
    8.2042    0.1083    0.0000 C   0  0  0  0  0  0  0  0  0  0  0  0
  2  3  1  0  0  0  0
  3 21  1  0  0  0  0
  4  2  1  0  0  0  0
  5  7  1  0  0  0  0
  6  1  1  0  0  0  0
  4  7  1  1  0  0  0
  8 14  1  0  0  0  0
  9 13  1  0  0  0  0
 10  6  2  0  0  0  0
 12 11  1  0  0  0  0
 12  5  1  1  0  0  0
 13  1  1  0  0  0  0
 14  9  1  0  0  0  0
 15 12  1  0  0  0  0
 16 18  2  0  0  0  0
 17 15  1  0  0  0  0
 18  1  1  0  0  0  0
  4 19  1  0  0  0  0
 20 11  1  0  0  0  0
 21 24  1  0  0  0  0
 22 23  1  0  0  0  0
 23  8  1  0  0  0  0
 24  8  1  0  0  0  0
 25  2  2  0  0  0  0
 26  5  2  0  0  0  0
 27 17  1  0  0  0  0
 28 19  1  0  0  0  0
 29 33  2  0  0  0  0
 30 29  1  0  0  0  0
 31 28  1  0  0  0  0
 32 28  2  0  0  0  0
 33 32  1  0  0  0  0
 34 31  2  0  0  0  0
 35  9  2  0  0  0  0
 36  6  1  0  0  0  0
 37 14  2  0  0  0  0
 38 17  2  0  0  0  0
 39 27  2  0  0  0  0
 40 35  1  0  0  0  0
 41 40  2  0  0  0  0
 42 38  1  0  0  0  0
 43 42  2  0  0  0  0
 16 10  1  0  0  0  0
 37 41  1  0  0  0  0
 22  3  1  0  0  0  0
 34 29  1  0  0  0  0
 27 20  1  0  0  0  0
 39 43  1  0  0  0  0
M  END
>  <Mol Weight>
597.15

>  <Formula>
C34H37ClN6O2

>  <chembl_id>
CHEMBL164857

$$$$

  Mrv0541 06201412482D          

 32 34  0  0  0  0            999 V2000
    9.2352   -3.6151    0.0000 N   0  0  0  0  0  0  0  0  0  0  0  0
    9.9743   -3.3744    0.0000 C   0  0  0  0  0  0  0  0  0  0  0  0
    9.2524   -4.4400    0.0000 C   0  0  0  0  0  0  0  0  0  0  0  0
    3.9588   -3.6608    0.0000 P   0  0  0  0  0  0  0  0  0  0  0  0
    9.9743   -2.4749    0.0000 C   0  0  0  0  0  0  0  0  0  0  0  0
   10.6790   -3.7983    0.0000 N   0  0  0  0  0  0  0  0  0  0  0  0
    9.2524   -2.2057    0.0000 N   0  0  0  0  0  0  0  0  0  0  0  0
    8.6509   -5.1103    0.0000 C   0  0  1  0  0  0  0  0  0  0  0  0
    8.7540   -2.8932    0.0000 C   0  0  0  0  0  0  0  0  0  0  0  0
   11.4352   -2.5093    0.0000 N   0  0  0  0  0  0  0  0  0  0  0  0
    8.3071   -4.1650    0.0000 O   0  0  0  0  0  0  0  0  0  0  0  0
    5.6088   -3.6780    0.0000 P   0  0  0  0  0  0  0  0  0  0  0  0
    2.3088   -3.6494    0.0000 P   0  0  0  0  0  0  0  0  0  0  0  0
    4.7838   -3.6666    0.0000 O   0  0  0  0  0  0  0  0  0  0  0  0
    3.1338   -3.6608    0.0000 O   0  0  0  0  0  0  0  0  0  0  0  0
   10.6618   -2.0624    0.0000 C   0  0  0  0  0  0  0  0  0  0  0  0
   11.4180   -3.3859    0.0000 C   0  0  0  0  0  0  0  0  0  0  0  0
    7.2587   -4.5088    0.0000 C   0  0  1  0  0  0  0  0  0  0  0  0
    7.8259   -5.1103    0.0000 C   0  0  1  0  0  0  0  0  0  0  0  0
    5.6088   -4.5030    0.0000 S   0  0  0  0  0  0  0  0  0  0  0  0
    3.9588   -4.4858    0.0000 O   0  0  0  0  0  0  0  0  0  0  0  0
    7.2587   -3.6838    0.0000 C   0  0  0  0  0  0  0  0  0  0  0  0
    5.6088   -2.8531    0.0000 S   0  0  0  0  0  0  0  0  0  0  0  0
    3.9588   -2.8359    0.0000 O   0  0  0  0  0  0  0  0  0  0  0  0
    6.4337   -3.6780    0.0000 O   0  0  0  0  0  0  0  0  0  0  0  0
    1.4839   -3.6437    0.0000 O   0  0  0  0  0  0  0  0  0  0  0  0
    2.3088   -4.4744    0.0000 O   0  0  0  0  0  0  0  0  0  0  0  0
    2.3088   -2.8245    0.0000 O   0  0  0  0  0  0  0  0  0  0  0  0
    8.9946   -5.8780    0.0000 O   0  0  0  0  0  0  0  0  0  0  0  0
   12.1227   -3.7983    0.0000 N   0  0  0  0  0  0  0  0  0  0  0  0
   10.6790   -1.2547    0.0000 O   0  0  0  0  0  0  0  0  0  0  0  0
    7.4822   -5.8838    0.0000 O   0  0  0  0  0  0  0  0  0  0  0  0
  2  1  1  0  0  0  0
  3  1  1  0  0  0  0
  4 14  1  0  0  0  0
  5  2  1  0  0  0  0
  6  2  2  0  0  0  0
  7  9  2  0  0  0  0
  8  3  1  0  0  0  0
  9  1  1  0  0  0  0
 10 17  2  0  0  0  0
 11  3  1  0  0  0  0
 12 25  1  0  0  0  0
 13 15  1  0  0  0  0
 14 12  1  0  0  0  0
 15  4  1  0  0  0  0
 16  5  2  0  0  0  0
 17  6  1  0  0  0  0
 18 11  1  0  0  0  0
 19  8  1  0  0  0  0
 20 12  1  0  0  0  0
 21  4  1  0  0  0  0
 18 22  1  1  0  0  0
 23 12  2  0  0  0  0
 24  4  2  0  0  0  0
 25 22  1  0  0  0  0
 26 13  1  0  0  0  0
 27 13  1  0  0  0  0
 28 13  2  0  0  0  0
  8 29  1  6  0  0  0
 30 17  1  0  0  0  0
 31 16  1  0  0  0  0
 19 32  1  6  0  0  0
  5  7  1  0  0  0  0
 18 19  1  0  0  0  0
 16 10  1  0  0  0  0
M  END
>  <Mol Weight>
555.312

>  <Formula>
C10H16N5O12P3S2

>  <chembl_id>
CHEMBL1163095

$$$$

  Mrv0541 06201412482D          

 43 48  0  0  0  0            999 V2000
    2.6774  -21.3134    0.0000 N   0  3  0  0  0  0  0  0  0  0  0  0
   -4.3141  -22.0870    0.0000 N   0  0  0  0  0  0  0  0  0  0  0  0
   -3.6810  -22.6147    0.0000 N   0  0  0  0  0  0  0  0  0  0  0  0
   -2.9840  -22.1657    0.0000 C   0  0  0  0  0  0  0  0  0  0  0  0
   -3.1971  -21.3675    0.0000 C   0  0  0  0  0  0  0  0  0  0  0  0
   -4.0178  -21.3265    0.0000 C   0  0  0  0  0  0  0  0  0  0  0  0
   -4.4685  -20.6266    0.0000 C   0  0  0  0  0  0  0  0  0  0  0  0
   -5.1687  -21.0818    0.0000 F   0  0  0  0  0  0  0  0  0  0  0  0
   -3.7725  -20.1747    0.0000 F   0  0  0  0  0  0  0  0  0  0  0  0
   -4.9244  -19.9309    0.0000 F   0  0  0  0  0  0  0  0  0  0  0  0
   -3.7674  -23.4317    0.0000 C   0  0  0  0  0  0  0  0  0  0  0  0
   -2.2053  -22.4657    0.0000 C   0  0  0  0  0  0  0  0  0  0  0  0
   -2.0783  -23.2860    0.0000 O   0  0  0  0  0  0  0  0  0  0  0  0
   -1.5663  -21.9537    0.0000 N   0  0  0  0  0  0  0  0  0  0  0  0
   -0.8001  -22.2537    0.0000 C   0  0  0  0  0  0  0  0  0  0  0  0
   -0.6701  -23.0707    0.0000 C   0  0  0  0  0  0  0  0  0  0  0  0
    0.0952  -23.3707    0.0000 C   0  0  0  0  0  0  0  0  0  0  0  0
    0.7353  -22.8543    0.0000 C   0  0  0  0  0  0  0  0  0  0  0  0
    0.6092  -22.0386    0.0000 C   0  0  0  0  0  0  0  0  0  0  0  0
   -0.1603  -21.7381    0.0000 C   0  0  0  0  0  0  0  0  0  0  0  0
   -0.2869  -20.9142    0.0000 F   0  0  0  0  0  0  0  0  0  0  0  0
   -4.5145  -23.7645    0.0000 C   0  0  0  0  0  0  0  0  0  0  0  0
   -4.6013  -24.5850    0.0000 C   0  0  0  0  0  0  0  0  0  0  0  0
   -3.0967  -23.9188    0.0000 C   0  0  0  0  0  0  0  0  0  0  0  0
   -3.1839  -24.7381    0.0000 C   0  0  0  0  0  0  0  0  0  0  0  0
   -3.9318  -25.0694    0.0000 C   0  0  0  0  0  0  0  0  0  0  0  0
   -3.8453  -25.8962    0.0000 O   0  0  0  0  0  0  0  0  0  0  0  0
   -3.0408  -26.0609    0.0000 N   0  0  0  0  0  0  0  0  0  0  0  0
   -2.6310  -25.3547    0.0000 C   0  0  0  0  0  0  0  0  0  0  0  0
   -1.8065  -25.2772    0.0000 N   0  0  0  0  0  0  0  0  0  0  0  0
    1.4977  -23.1575    0.0000 C   0  0  0  0  0  0  0  0  0  0  0  0
    1.6227  -23.9728    0.0000 C   0  0  0  0  0  0  0  0  0  0  0  0
    2.3883  -24.2759    0.0000 C   0  0  0  0  0  0  0  0  0  0  0  0
    3.0361  -23.7546    0.0000 C   0  0  0  0  0  0  0  0  0  0  0  0
    2.9089  -22.9431    0.0000 C   0  0  0  0  0  0  0  0  0  0  0  0
    2.1432  -22.6437    0.0000 C   0  0  0  0  0  0  0  0  0  0  0  0
    2.0281  -21.8199    0.0000 C   0  0  0  0  0  0  0  0  0  0  0  0
    3.4432  -21.6292    0.0000 C   0  0  0  0  0  0  0  0  0  0  0  0
    4.0909  -21.1264    0.0000 C   0  0  0  0  0  0  0  0  0  0  0  0
    3.9812  -20.3098    0.0000 O   0  0  0  0  0  0  0  0  0  0  0  0
    3.2177  -19.9985    0.0000 C   0  0  0  0  0  0  0  0  0  0  0  0
    2.5640  -20.5037    0.0000 C   0  0  0  0  0  0  0  0  0  0  0  0
    1.9591  -20.9009    0.0000 C   0  0  0  0  0  0  0  0  0  0  0  0
  3 11  1  0  0  0  0
 11 22  2  0  0  0  0
  6  2  2  0  0  0  0
 22 23  1  0  0  0  0
 23 26  2  0  0  0  0
  4 12  1  0  0  0  0
 25 24  2  0  0  0  0
 24 11  1  0  0  0  0
 25 26  1  0  0  0  0
  2  3  1  0  0  0  0
 12 13  2  0  0  0  0
  6  7  1  0  0  0  0
 12 14  1  0  0  0  0
 26 27  1  0  0  0  0
 27 28  1  0  0  0  0
 28 29  2  0  0  0  0
 29 25  1  0  0  0  0
 14 15  1  0  0  0  0
 29 30  1  0  0  0  0
  7  8  1  0  0  0  0
 18 31  1  0  0  0  0
 15 16  2  0  0  0  0
 31 32  2  0  0  0  0
  3  4  1  0  0  0  0
 32 33  1  0  0  0  0
 16 17  1  0  0  0  0
 33 34  2  0  0  0  0
  7  9  1  0  0  0  0
 34 35  1  0  0  0  0
 17 18  2  0  0  0  0
 35 36  2  0  0  0  0
 36 31  1  0  0  0  0
  4  5  2  0  0  0  0
 36 37  1  0  0  0  0
 37  1  1  0  0  0  0
  1 38  1  0  0  0  0
 18 19  1  0  0  0  0
  7 10  1  0  0  0  0
 19 20  2  0  0  0  0
 20 15  1  0  0  0  0
  5  6  1  0  0  0  0
  1 42  1  0  0  0  0
 38 39  1  0  0  0  0
 39 40  1  0  0  0  0
 40 41  1  0  0  0  0
 41 42  1  0  0  0  0
 20 21  1  0  0  0  0
  1 43  1  0  0  0  0
M  CHG  1   1   1
M  END
>  <Mol Weight>
595.5668

>  <Formula>
C30H27F4N6O3

>  <chembl_id>
CHEMBL1184957

$$$$

  Mrv0541 06201412482D          

 47 53  0  0  0  0            999 V2000
    6.2216    1.9688    0.0000 C   0  0  0  0  0  0  0  0  0  0  0  0
    5.5055    2.3797    0.0000 C   0  0  0  0  0  0  0  0  0  0  0  0
    4.7891    1.1363    0.0000 C   0  0  0  0  0  0  0  0  0  0  0  0
    4.7954    1.9634    0.0000 C   0  0  0  0  0  0  0  0  0  0  0  0
    4.0827    2.3789    0.0000 C   0  0  0  0  0  0  0  0  0  0  0  0
    3.3610    1.9701    0.0000 C   0  0  0  0  0  0  0  0  0  0  0  0
    3.3589    1.1430    0.0000 N   0  0  0  0  0  0  0  0  0  0  0  0
    4.0742    0.7247    0.0000 C   0  0  1  0  0  0  0  0  0  0  0  0
    3.3552    0.3143    0.0000 C   0  0  0  0  0  0  0  0  0  0  0  0
    4.6557    0.1412    0.0000 H   0  0  0  0  0  0  0  0  0  0  0  0
    3.3466   -0.5091    0.0000 C   0  0  0  0  0  0  0  0  0  0  0  0
    2.6277   -0.9122    0.0000 C   0  0  0  0  0  0  0  0  0  0  0  0
    2.6187   -1.7387    0.0000 C   0  0  0  0  0  0  0  0  0  0  0  0
    3.3277   -2.1586    0.0000 C   0  0  0  0  0  0  0  0  0  0  0  0
    4.0521   -1.7470    0.0000 C   0  0  0  0  0  0  0  0  0  0  0  0
    4.0559   -0.9226    0.0000 C   0  0  0  0  0  0  0  0  0  0  0  0
    4.7624   -2.1659    0.0000 O   0  0  0  0  0  0  0  0  0  0  0  0
    2.6405    0.7336    0.0000 C   0  0  0  0  0  0  0  0  0  0  0  0
    6.9337    2.3847    0.0000 O   0  0  0  0  0  0  0  0  0  0  0  0
    7.6506    1.9728    0.0000 C   0  0  0  0  0  0  0  0  0  0  0  0
    3.3208   -2.9861    0.0000 O   0  0  0  0  0  0  0  0  0  0  0  0
    5.5020    0.7221    0.0000 C   0  0  0  0  0  0  0  0  0  0  0  0
    6.2259    1.1371    0.0000 C   0  0  0  0  0  0  0  0  0  0  0  0
    5.3765   -0.1086    0.0000 O   0  0  0  0  0  0  0  0  0  0  0  0
    6.7845   -0.6583    0.0000 C   0  0  0  0  0  0  0  0  0  0  0  0
    5.9485   -0.7226    0.0000 C   0  0  0  0  0  0  0  0  0  0  0  0
    5.5878   -1.4775    0.0000 C   0  0  0  0  0  0  0  0  0  0  0  0
    6.0623   -2.1688    0.0000 C   0  0  0  0  0  0  0  0  0  0  0  0
    6.9012   -2.1001    0.0000 C   0  0  0  0  0  0  0  0  0  0  0  0
    7.2580   -1.3449    0.0000 C   0  0  0  0  0  0  0  0  0  0  0  0
    7.3707   -2.7783    0.0000 C   0  0  0  0  0  0  0  0  0  0  0  0
    7.0181   -3.5241    0.0000 C   0  0  1  0  0  0  0  0  0  0  0  0
    6.3121   -5.0097    0.0000 C   0  0  0  0  0  0  0  0  0  0  0  0
    7.1353   -4.9440    0.0000 C   0  0  0  0  0  0  0  0  0  0  0  0
    7.4923   -4.1975    0.0000 N   0  0  0  0  0  0  0  0  0  0  0  0
    5.8458   -4.3287    0.0000 C   0  0  0  0  0  0  0  0  0  0  0  0
    6.1996   -3.5894    0.0000 C   0  0  0  0  0  0  0  0  0  0  0  0
    5.7364   -2.9155    0.0000 C   0  0  0  0  0  0  0  0  0  0  0  0
    4.9196   -2.9797    0.0000 C   0  0  0  0  0  0  0  0  0  0  0  0
    4.5680   -3.7235    0.0000 C   0  0  0  0  0  0  0  0  0  0  0  0
    5.0333   -4.3944    0.0000 C   0  0  0  0  0  0  0  0  0  0  0  0
    8.3144   -4.1285    0.0000 C   0  0  0  0  0  0  0  0  0  0  0  0
    6.4285   -2.9330    0.0000 H   0  0  0  0  0  0  0  0  0  0  0  0
    3.7459   -3.7915    0.0000 O   0  0  0  0  0  0  0  0  0  0  0  0
    3.3938   -4.5374    0.0000 C   0  0  0  0  0  0  0  0  0  0  0  0
    6.9407    0.7254    0.0000 O   0  0  0  0  0  0  0  0  0  0  0  0
    6.9416   -0.0995    0.0000 C   0  0  0  0  0  0  0  0  0  0  0  0
  3 22  1  0  0  0  0
 22 23  2  0  0  0  0
 23  1  1  0  0  0  0
 22 24  1  0  0  0  0
 24 26  1  0  0  0  0
  1  2  2  0  0  0  0
  2  4  1  0  0  0  0
 25 26  2  0  0  0  0
  3  4  2  0  0  0  0
 26 27  1  0  0  0  0
  3  8  1  0  0  0  0
 27 28  2  0  0  0  0
  4  5  1  0  0  0  0
 28 29  1  0  0  0  0
  5  6  1  0  0  0  0
 29 30  2  0  0  0  0
 30 25  1  0  0  0  0
  6  7  1  0  0  0  0
 29 31  1  0  0  0  0
  7  8  1  0  0  0  0
 31 32  1  0  0  0  0
 32 37  1  0  0  0  0
  8  9  1  0  0  0  0
  8 10  1  1  0  0  0
  9 11  1  0  0  0  0
 32 35  1  0  0  0  0
 36 33  1  0  0  0  0
 33 34  1  0  0  0  0
 34 35  1  0  0  0  0
 11 12  2  0  0  0  0
 12 13  1  0  0  0  0
 36 37  2  0  0  0  0
 13 14  2  0  0  0  0
 37 38  1  0  0  0  0
 14 15  1  0  0  0  0
 38 39  2  0  0  0  0
 15 16  2  0  0  0  0
 39 40  1  0  0  0  0
 16 11  1  0  0  0  0
 40 41  2  0  0  0  0
 41 36  1  0  0  0  0
 15 17  1  0  0  0  0
 35 42  1  0  0  0  0
  7 18  1  0  0  0  0
 32 43  1  6  0  0  0
 17 39  1  0  0  0  0
  1 19  1  0  0  0  0
 40 44  1  0  0  0  0
 19 20  1  0  0  0  0
 44 45  1  0  0  0  0
 14 21  1  0  0  0  0
 23 46  1  0  0  0  0
 46 47  1  0  0  0  0
M  END
>  <Mol Weight>
608.7233

>  <Formula>
C37H40N2O6

>  <chembl_id>
CHEMBL1172569

$$$$

  Mrv0541 06201412482D          

 37 39  0  0  0  0            999 V2000
   -7.9321    0.5769    0.0000 O   0  0  0  0  0  0  0  0  0  0  0  0
   -7.1352    0.3634    0.0000 P   0  0  0  0  0  0  0  0  0  0  0  0
   -6.3383    0.5769    0.0000 O   0  0  0  0  0  0  0  0  0  0  0  0
   -5.5414    0.3634    0.0000 C   0  0  0  0  0  0  0  0  0  0  0  0
   -4.9581   -0.2200    0.0000 C   0  0  2  0  0  0  0  0  0  0  0  0
   -4.6624   -0.9902    0.0000 C   0  0  2  0  0  0  0  0  0  0  0  0
   -3.8386   -0.9470    0.0000 C   0  0  0  0  0  0  0  0  0  0  0  0
   -3.6250   -0.1501    0.0000 C   0  0  1  0  0  0  0  0  0  0  0  0
   -4.3169    0.2992    0.0000 O   0  0  0  0  0  0  0  0  0  0  0  0
   -3.4115    0.6468    0.0000 N   0  0  0  0  0  0  0  0  0  0  0  0
   -2.6971    1.0593    0.0000 C   0  0  0  0  0  0  0  0  0  0  0  0
   -2.6971    1.8843    0.0000 C   0  0  0  0  0  0  0  0  0  0  0  0
   -3.4115    2.2968    0.0000 C   0  0  0  0  0  0  0  0  0  0  0  0
   -4.1260    1.8843    0.0000 N   0  0  0  0  0  0  0  0  0  0  0  0
   -4.1260    1.0593    0.0000 C   0  0  0  0  0  0  0  0  0  0  0  0
   -1.9826    2.2968    0.0000 C   0  0  0  0  0  0  0  0  0  0  0  0
   -3.4115    3.1218    0.0000 O   0  0  0  0  0  0  0  0  0  0  0  0
   -4.8405    0.6468    0.0000 O   0  0  0  0  0  0  0  0  0  0  0  0
   -5.1117   -1.6821    0.0000 N   0  0  0  0  0  0  0  0  0  0  0  0
   -4.7372   -2.4172    0.0000 N   0  3  0  0  0  0  0  0  0  0  0  0
   -4.9507   -3.2141    0.0000 N   0  5  0  0  0  0  0  0  0  0  0  0
   -7.1352    1.1884    0.0000 O   0  0  0  0  0  0  0  0  0  0  0  0
   -7.1352   -0.4616    0.0000 O   0  0  0  0  0  0  0  0  0  0  0  0
   -9.4716    0.1644    0.0000 O   0  0  0  0  0  0  0  0  0  0  0  0
   -9.8841   -0.5501    0.0000 C   0  0  2  0  0  0  0  0  0  0  0  0
   -9.8841   -1.3751    0.0000 C   0  0  2  0  0  0  0  0  0  0  0  0
  -10.5986   -0.1376    0.0000 O   0  0  0  0  0  0  0  0  0  0  0  0
  -11.3130   -0.5501    0.0000 C   0  0  1  0  0  0  0  0  0  0  0  0
  -11.3130   -1.3751    0.0000 C   0  0  2  0  0  0  0  0  0  0  0  0
  -10.5985   -1.7876    0.0000 C   0  0  2  0  0  0  0  0  0  0  0  0
  -12.0275   -0.1376    0.0000 C   0  0  0  0  0  0  0  0  0  0  0  0
  -12.7420   -0.5501    0.0000 O   0  0  0  0  0  0  0  0  0  0  0  0
  -12.0275   -1.7876    0.0000 O   0  0  0  0  0  0  0  0  0  0  0  0
  -10.5985   -2.6126    0.0000 O   0  0  0  0  0  0  0  0  0  0  0  0
   -9.1696   -1.7876    0.0000 O   0  0  0  0  0  0  0  0  0  0  0  0
   -8.6466    0.1644    0.0000 C   0  0  0  0  0  0  0  0  0  0  0  0
   -8.6466    0.9894    0.0000 C   0  0  0  0  0  0  0  0  0  0  0  0
  1  2  1  0  0  0  0
  2  3  1  0  0  0  0
  3  4  1  0  0  0  0
  5  4  1  1  0  0  0
  5  6  1  0  0  0  0
  5  9  1  0  0  0  0
  6  7  1  0  0  0  0
  7  8  1  0  0  0  0
  8  9  1  0  0  0  0
  8 10  1  1  0  0  0
 10 11  1  0  0  0  0
 15 10  1  0  0  0  0
 11 12  2  0  0  0  0
 12 13  1  0  0  0  0
 13 14  1  0  0  0  0
 14 15  1  0  0  0  0
 12 16  1  0  0  0  0
 13 17  2  0  0  0  0
 15 18  2  0  0  0  0
  6 19  1  6  0  0  0
 19 20  2  0  0  0  0
 20 21  2  0  0  0  0
  2 22  1  0  0  0  0
  2 23  2  0  0  0  0
 25 24  1  6  0  0  0
 26 25  1  0  0  0  0
 25 27  1  0  0  0  0
 27 28  1  0  0  0  0
 28 29  1  0  0  0  0
 29 30  1  0  0  0  0
 30 26  1  0  0  0  0
 28 31  1  1  0  0  0
 31 32  1  0  0  0  0
 29 33  1  6  0  0  0
 30 34  1  1  0  0  0
 26 35  1  1  0  0  0
 24 36  1  0  0  0  0
 36 37  1  0  0  0  0
 37  1  1  0  0  0  0
M  CHG  2  20   1  21  -1
M  END
>  <Mol Weight>
553.4144

>  <Formula>
C18H28N5O13P

>  <chembl_id>
CHEMBL1159596

$$$$

  Mrv0541 06201412482D          

 41 46  0  0  0  0            999 V2000
   -6.1635   -4.5101    0.0000 C   0  0  0  0  0  0  0  0  0  0  0  0
   -6.1623   -5.3378    0.0000 C   0  0  0  0  0  0  0  0  0  0  0  0
   -5.4441   -5.7508    0.0000 C   0  0  0  0  0  0  0  0  0  0  0  0
   -5.4459   -4.0971    0.0000 C   0  0  0  0  0  0  0  0  0  0  0  0
   -4.7303   -4.5065    0.0000 C   0  0  0  0  0  0  0  0  0  0  0  0
   -4.7295   -5.3336    0.0000 C   0  0  0  0  0  0  0  0  0  0  0  0
   -4.0139   -5.7448    0.0000 C   0  0  0  0  0  0  0  0  0  0  0  0
   -4.0195   -4.0921    0.0000 C   0  0  0  0  0  0  0  0  0  0  0  0
   -3.3033   -4.4995    0.0000 C   0  0  0  0  0  0  0  0  0  0  0  0
   -3.3016   -5.3268    0.0000 C   0  0  0  0  0  0  0  0  0  0  0  0
   -2.5881   -5.7368    0.0000 N   0  0  0  0  0  0  0  0  0  0  0  0
   -2.5917   -4.0820    0.0000 C   0  0  0  0  0  0  0  0  0  0  0  0
   -2.5946   -3.2567    0.0000 O   0  0  0  0  0  0  0  0  0  0  0  0
   -2.5875   -6.5621    0.0000 C   0  0  0  0  0  0  0  0  0  0  0  0
   -1.8736   -4.4965    0.0000 C   0  0  0  0  0  0  0  0  0  0  0  0
   -1.8741   -5.3211    0.0000 C   0  0  0  0  0  0  0  0  0  0  0  0
   -0.4511   -4.4917    0.0000 C   0  0  0  0  0  0  0  0  0  0  0  0
   -1.1645   -4.0844    0.0000 C   0  0  0  0  0  0  0  0  0  0  0  0
   -1.1677   -3.2591    0.0000 O   0  0  0  0  0  0  0  0  0  0  0  0
   -0.4545   -2.8437    0.0000 C   0  0  0  0  0  0  0  0  0  0  0  0
   -0.4476   -5.3195    0.0000 C   0  0  0  0  0  0  0  0  0  0  0  0
   -1.1617   -5.7302    0.0000 C   0  0  0  0  0  0  0  0  0  0  0  0
   -1.1630   -6.5494    0.0000 C   0  0  2  0  0  0  0  0  0  0  0  0
   -0.4519   -6.9641    0.0000 C   0  0  2  0  0  0  0  0  0  0  0  0
    0.2621   -6.5534    0.0000 C   0  0  0  0  0  0  0  0  0  0  0  0
    0.2651   -5.7280    0.0000 O   0  0  0  0  0  0  0  0  0  0  0  0
    0.6670   -7.2654    0.0000 C   0  0  0  0  0  0  0  0  0  0  0  0
    0.9712   -6.1357    0.0000 C   0  0  0  0  0  0  0  0  0  0  0  0
   -1.8789   -6.9600    0.0000 O   0  0  0  0  0  0  0  0  0  0  0  0
   -0.4544   -7.7894    0.0000 O   0  0  0  0  0  0  0  0  0  0  0  0
    0.2591   -8.2042    0.0000 C   0  0  0  0  0  0  0  0  0  0  0  0
    0.2567   -9.0296    0.0000 O   0  0  0  0  0  0  0  0  0  0  0  0
    0.9751   -7.7937    0.0000 C   0  0  0  0  0  0  0  0  0  0  0  0
    1.6887   -8.2084    0.0000 C   0  0  0  0  0  0  0  0  0  0  0  0
    2.4047   -7.7980    0.0000 C   0  0  0  0  0  0  0  0  0  0  0  0
    3.1151   -8.2136    0.0000 C   0  0  0  0  0  0  0  0  0  0  0  0
    3.8306   -7.8038    0.0000 C   0  0  0  0  0  0  0  0  0  0  0  0
    3.8335   -6.9777    0.0000 C   0  0  0  0  0  0  0  0  0  0  0  0
    3.1150   -6.5630    0.0000 C   0  0  0  0  0  0  0  0  0  0  0  0
    2.4024   -6.9752    0.0000 C   0  0  0  0  0  0  0  0  0  0  0  0
    4.5490   -6.5662    0.0000 Cl  0  0  0  0  0  0  0  0  0  0  0  0
  8  5  1  0  0  0  0
 18 19  1  0  0  0  0
  9 10  1  0  0  0  0
 19 20  1  0  0  0  0
 21 22  2  0  0  0  0
  5  4  2  0  0  0  0
  4  1  1  0  0  0  0
  2  3  1  0  0  0  0
  9 12  1  0  0  0  0
 10 11  1  0  0  0  0
 21 26  1  0  0  0  0
 22 23  1  0  0  0  0
 23 24  1  0  0  0  0
 24 25  1  0  0  0  0
 25 26  1  0  0  0  0
 11 16  1  0  0  0  0
 25 27  1  0  0  0  0
 15 12  1  0  0  0  0
 25 28  1  0  0  0  0
  5  6  1  0  0  0  0
 23 29  1  6  0  0  0
 12 13  2  0  0  0  0
 24 30  1  6  0  0  0
  3  6  2  0  0  0  0
 30 31  1  0  0  0  0
 11 14  1  0  0  0  0
 31 32  2  0  0  0  0
  6  7  1  0  0  0  0
 31 33  1  0  0  0  0
  7 10  2  0  0  0  0
 33 34  2  0  0  0  0
 15 16  2  0  0  0  0
 34 35  1  0  0  0  0
 16 22  1  0  0  0  0
 35 36  2  0  0  0  0
  1  2  2  0  0  0  0
 36 37  1  0  0  0  0
 21 17  1  0  0  0  0
 37 38  2  0  0  0  0
  9  8  2  0  0  0  0
 38 39  1  0  0  0  0
 17 18  2  0  0  0  0
 39 40  2  0  0  0  0
 40 35  1  0  0  0  0
 18 15  1  0  0  0  0
 38 41  1  0  0  0  0
M  END
>  <Mol Weight>
570.032

>  <Formula>
C33H28ClNO6

>  <chembl_id>
CHEMBL501280

$$$$

  Mrv0541 06201412482D          

 42 45  0  0  0  0            999 V2000
   -2.9348  -19.3750    0.0000 C   0  0  0  0  0  0  0  0  0  0  0  0
   -2.9359  -20.2023    0.0000 C   0  0  0  0  0  0  0  0  0  0  0  0
   -2.2211  -20.6152    0.0000 C   0  0  0  0  0  0  0  0  0  0  0  0
   -1.5047  -20.2019    0.0000 C   0  0  0  0  0  0  0  0  0  0  0  0
   -1.5075  -19.3713    0.0000 C   0  0  0  0  0  0  0  0  0  0  0  0
   -2.2229  -18.9622    0.0000 C   0  0  0  0  0  0  0  0  0  0  0  0
   -2.2213  -21.4402    0.0000 O   0  0  0  0  0  0  0  0  0  0  0  0
   -0.7895  -20.6132    0.0000 C   0  0  0  0  0  0  0  0  0  0  0  0
   -0.7883  -21.4382    0.0000 O   0  0  0  0  0  0  0  0  0  0  0  0
   -0.0757  -20.1996    0.0000 N   0  0  0  0  0  0  0  0  0  0  0  0
    0.6394  -20.6110    0.0000 C   0  0  1  0  0  0  0  0  0  0  0  0
    0.6366  -21.4340    0.0000 C   0  0  2  0  0  0  0  0  0  0  0  0
    1.3476  -21.8453    0.0000 O   0  0  0  0  0  0  0  0  0  0  0  0
    1.3490  -20.1934    0.0000 C   0  0  0  0  0  0  0  0  0  0  0  0
    2.0646  -20.6093    0.0000 O   0  0  0  0  0  0  0  0  0  0  0  0
    2.0659  -21.4336    0.0000 C   0  0  0  0  0  0  0  0  0  0  0  0
    2.8511  -21.6870    0.0000 C   0  0  1  0  0  0  0  0  0  0  0  0
    3.3339  -21.0194    0.0000 C   0  0  2  0  0  0  0  0  0  0  0  0
    2.8482  -20.3533    0.0000 C   0  0  2  0  0  0  0  0  0  0  0  0
    1.3468  -19.3684    0.0000 O   0  0  0  0  0  0  0  0  0  0  0  0
   -0.0787  -21.8450    0.0000 C   0  0  0  0  0  0  0  0  0  0  0  0
    4.1589  -21.0180    0.0000 O   0  0  0  0  0  0  0  0  0  0  0  0
    4.5702  -20.3028    0.0000 C   0  0  0  0  0  0  0  0  0  0  0  0
    5.3952  -20.3014    0.0000 C   0  0  0  0  0  0  0  0  0  0  0  0
    4.1565  -19.5890    0.0000 O   0  0  0  0  0  0  0  0  0  0  0  0
    3.1018  -19.5683    0.0000 C   0  0  0  0  0  0  0  0  0  0  0  0
    3.2556  -22.4061    0.0000 C   0  0  0  0  0  0  0  0  0  0  0  0
    4.0805  -22.4153    0.0000 C   0  0  0  0  0  0  0  0  0  0  0  0
    2.0583  -22.2583    0.0000 O   0  0  0  0  0  0  0  0  0  0  0  0
   -3.6507  -20.6143    0.0000 N   0  0  0  0  0  0  0  0  0  0  0  0
   -4.3649  -20.2012    0.0000 C   0  0  0  0  0  0  0  0  0  0  0  0
   -5.0797  -20.6131    0.0000 O   0  0  0  0  0  0  0  0  0  0  0  0
    5.8069  -21.0160    0.0000 C   0  0  0  0  0  0  0  0  0  0  0  0
    6.6311  -21.0150    0.0000 C   0  0  0  0  0  0  0  0  0  0  0  0
    7.0432  -20.2993    0.0000 C   0  0  0  0  0  0  0  0  0  0  0  0
    6.6251  -19.5831    0.0000 C   0  0  0  0  0  0  0  0  0  0  0  0
    5.8022  -19.5877    0.0000 C   0  0  0  0  0  0  0  0  0  0  0  0
    4.4805  -23.1349    0.0000 C   0  0  0  0  0  0  0  0  0  0  0  0
    5.3047  -23.1445    0.0000 C   0  0  0  0  0  0  0  0  0  0  0  0
    5.7260  -22.4342    0.0000 C   0  0  0  0  0  0  0  0  0  0  0  0
    5.3172  -21.7127    0.0000 C   0  0  0  0  0  0  0  0  0  0  0  0
    4.4943  -21.7066    0.0000 C   0  0  0  0  0  0  0  0  0  0  0  0
  8 10  1  0  0  0  0
 12 21  1  6  0  0  0
  2  3  1  0  0  0  0
 18 22  1  6  0  0  0
 11 10  1  6  0  0  0
 22 23  1  0  0  0  0
 11 12  1  0  0  0  0
 23 24  1  0  0  0  0
  5  6  2  0  0  0  0
 23 25  2  0  0  0  0
  6  1  1  0  0  0  0
 19 26  1  1  0  0  0
  1  2  2  0  0  0  0
 17 27  1  1  0  0  0
 11 14  1  0  0  0  0
 27 28  1  0  0  0  0
 12 13  1  0  0  0  0
 16 29  2  0  0  0  0
 13 16  1  0  0  0  0
  2 30  1  0  0  0  0
 15 14  1  0  0  0  0
 30 31  1  0  0  0  0
  3  7  1  0  0  0  0
 31 32  2  0  0  0  0
  3  4  2  0  0  0  0
 24 33  2  0  0  0  0
  4  8  1  0  0  0  0
 33 34  1  0  0  0  0
 34 35  2  0  0  0  0
  8  9  2  0  0  0  0
 35 36  1  0  0  0  0
 16 17  1  0  0  0  0
 36 37  2  0  0  0  0
 37 24  1  0  0  0  0
 17 18  1  0  0  0  0
 28 38  2  0  0  0  0
 18 19  1  0  0  0  0
 38 39  1  0  0  0  0
 19 15  1  0  0  0  0
 39 40  2  0  0  0  0
  4  5  1  0  0  0  0
 40 41  1  0  0  0  0
 14 20  2  0  0  0  0
 41 42  2  0  0  0  0
 42 28  1  0  0  0  0
M  END
>  <Mol Weight>
574.5779

>  <Formula>
C31H30N2O9

>  <chembl_id>
CHEMBL502486

$$$$

  Mrv0541 06201412482D          

 37 41  0  0  0  0            999 V2000
    2.2840   -6.6839    0.0000 C   0  0  0  0  0  0  0  0  0  0  0  0
    2.2840   -7.5141    0.0000 C   0  0  0  0  0  0  0  0  0  0  0  0
    3.0045   -7.9271    0.0000 C   0  0  0  0  0  0  0  0  0  0  0  0
    3.7128   -7.5141    0.0000 C   0  0  0  0  0  0  0  0  0  0  0  0
    3.7128   -6.6839    0.0000 C   0  0  0  0  0  0  0  0  0  0  0  0
    3.0003   -6.2751    0.0000 C   0  0  0  0  0  0  0  0  0  0  0  0
    1.5592   -7.9312    0.0000 O   0  0  0  0  0  0  0  0  0  0  0  0
    3.0128   -8.7489    0.0000 O   0  0  0  0  0  0  0  0  0  0  0  0
    3.7251   -9.1578    0.0000 C   0  0  0  0  0  0  0  0  0  0  0  0
    4.4250   -6.2751    0.0000 C   0  0  0  0  0  0  0  0  0  0  0  0
    5.1416   -6.6839    0.0000 C   0  0  0  0  0  0  0  0  0  0  0  0
    5.1416   -5.0361    0.0000 C   0  0  0  0  0  0  0  0  0  0  0  0
    4.4250   -5.4490    0.0000 C   0  0  0  0  0  0  0  0  0  0  0  0
    5.8537   -5.4490    0.0000 C   0  0  0  0  0  0  0  0  0  0  0  0
    5.8537   -6.2751    0.0000 C   0  0  0  0  0  0  0  0  0  0  0  0
    6.6356   -6.5277    0.0000 N   0  0  0  0  0  0  0  0  0  0  0  0
    7.1205   -5.8662    0.0000 C   0  0  0  0  0  0  0  0  0  0  0  0
    6.6356   -5.1963    0.0000 C   0  0  0  0  0  0  0  0  0  0  0  0
    7.9423   -5.8702    0.0000 O   0  0  0  0  0  0  0  0  0  0  0  0
    6.8884   -4.4104    0.0000 C   0  0  0  0  0  0  0  0  0  0  0  0
    7.6923   -4.2320    0.0000 C   0  0  0  0  0  0  0  0  0  0  0  0
    8.3621   -4.7172    0.0000 Se  0  0  0  0  0  0  0  0  0  0  0  0
    9.0330   -4.2255    0.0000 C   0  0  0  0  0  0  0  0  0  0  0  0
    8.7677   -3.4462    0.0000 C   0  0  0  0  0  0  0  0  0  0  0  0
    7.9463   -3.4477    0.0000 C   0  0  0  0  0  0  0  0  0  0  0  0
    9.8269   -4.4651    0.0000 C   0  0  0  0  0  0  0  0  0  0  0  0
    9.2461   -2.7710    0.0000 C   0  0  0  0  0  0  0  0  0  0  0  0
   10.0770   -2.8505    0.0000 O   0  0  0  0  0  0  0  0  0  0  0  0
    8.9019   -2.0244    0.0000 N   0  0  0  0  0  0  0  0  0  0  0  0
    8.0759   -1.9494    0.0000 C   0  0  0  0  0  0  0  0  0  0  0  0
    7.7236   -1.1986    0.0000 C   0  0  0  0  0  0  0  0  0  0  0  0
    6.9017   -1.1237    0.0000 N   0  0  0  0  0  0  0  0  0  0  0  0
    6.5635   -0.3724    0.0000 C   0  0  0  0  0  0  0  0  0  0  0  0
    5.7454   -0.2958    0.0000 C   0  0  0  0  0  0  0  0  0  0  0  0
    5.2638   -0.9643    0.0000 O   0  0  0  0  0  0  0  0  0  0  0  0
    5.6105   -1.7158    0.0000 C   0  0  0  0  0  0  0  0  0  0  0  0
    6.4345   -1.7945    0.0000 C   0  0  0  0  0  0  0  0  0  0  0  0
 11 15  1  0  0  0  0
 14 12  1  0  0  0  0
 12 13  2  0  0  0  0
 13 10  1  0  0  0  0
 14 15  2  0  0  0  0
 15 16  1  0  0  0  0
 16 17  1  0  0  0  0
 17 18  1  0  0  0  0
 18 14  1  0  0  0  0
 17 19  2  0  0  0  0
 18 20  2  0  0  0  0
 20 21  1  0  0  0  0
 21 22  1  0  0  0  0
 22 23  1  0  0  0  0
 23 24  2  0  0  0  0
 24 25  1  0  0  0  0
 25 21  2  0  0  0  0
 23 26  1  0  0  0  0
  1  2  2  0  0  0  0
 24 27  1  0  0  0  0
  2  3  1  0  0  0  0
 27 28  2  0  0  0  0
  3  4  2  0  0  0  0
 27 29  1  0  0  0  0
  4  5  1  0  0  0  0
 29 30  1  0  0  0  0
  5  6  2  0  0  0  0
 30 31  1  0  0  0  0
  6  1  1  0  0  0  0
 31 32  1  0  0  0  0
 32 33  1  0  0  0  0
  2  7  1  0  0  0  0
  3  8  1  0  0  0  0
  8  9  1  0  0  0  0
  5 10  1  0  0  0  0
 10 11  2  0  0  0  0
 32 37  1  0  0  0  0
 33 34  1  0  0  0  0
 34 35  1  0  0  0  0
 35 36  1  0  0  0  0
 36 37  1  0  0  0  0
M  END
>  <Mol Weight>
566.51

>  <Formula>
C28H29N3O5Se

>  <chembl_id>
CHEMBL1223185

$$$$

  Mrv0541 06201412482D          

 41 42  0  0  1  0            999 V2000
    5.2733   -4.2476    0.0000 N   0  0  0  0  0  0  0  0  0  0  0  0
    4.5661   -3.8340    0.0000 C   0  0  0  0  0  0  0  0  0  0  0  0
    6.2163   -3.1185    0.0000 C   0  0  0  0  0  0  0  0  0  0  0  0
   11.6261   -0.9348    0.0000 N   0  3  0  0  0  0  0  0  0  0  0  0
    2.4195   -4.2228    0.0000 C   0  0  0  0  0  0  0  0  0  0  0  0
    3.1309   -3.8258    0.0000 N   0  0  0  0  0  0  0  0  0  0  0  0
    7.9575   -1.8157    0.0000 C   0  0  0  0  0  0  0  0  0  0  0  0
    3.8506   -4.2352    0.0000 C   0  0  1  0  0  0  0  0  0  0  0  0
    6.0302   -3.9250    0.0000 C   0  0  1  0  0  0  0  0  0  0  0  0
    6.9980   -2.8704    0.0000 N   0  0  0  0  0  0  0  0  0  0  0  0
    7.1759   -2.0721    0.0000 N   0  0  0  0  0  0  0  0  0  0  0  0
    1.7040   -3.8092    0.0000 C   0  0  1  0  0  0  0  0  0  0  0  0
    0.9844   -4.2104    0.0000 N   0  0  0  0  0  0  0  0  0  0  0  0
    8.3422   -1.0836    0.0000 O   0  0  0  0  0  0  0  0  0  0  0  0
   10.8072   -0.9720    0.0000 C   0  0  0  0  0  0  0  0  0  0  0  0
    0.7941   -5.0045    0.0000 C   0  0  0  0  0  0  0  0  0  0  0  0
   12.0728   -1.6254    0.0000 O   0  5  0  0  0  0  0  0  0  0  0  0
    4.5702   -3.0068    0.0000 O   0  0  0  0  0  0  0  0  0  0  0  0
   12.0025   -0.2027    0.0000 O   0  0  0  0  0  0  0  0  0  0  0  0
    5.6001   -2.5602    0.0000 O   0  0  0  0  0  0  0  0  0  0  0  0
    8.4042   -2.5105    0.0000 O   0  0  0  0  0  0  0  0  0  0  0  0
    2.4113   -5.0500    0.0000 O   0  0  0  0  0  0  0  0  0  0  0  0
    1.3814   -5.5753    0.0000 O   0  0  0  0  0  0  0  0  0  0  0  0
   10.3522   -0.2771    0.0000 C   0  0  0  0  0  0  0  0  0  0  0  0
   10.4267   -1.7040    0.0000 C   0  0  0  0  0  0  0  0  0  0  0  0
    3.8382   -5.0665    0.0000 C   0  0  0  0  0  0  0  0  0  0  0  0
    9.1611   -1.0464    0.0000 C   0  0  0  0  0  0  0  0  0  0  0  0
    5.3602   -5.0665    0.0000 C   0  0  0  0  0  0  0  0  0  0  0  0
    1.7164   -2.9820    0.0000 C   0  0  0  0  0  0  0  0  0  0  0  0
    9.6036   -1.7413    0.0000 C   0  0  0  0  0  0  0  0  0  0  0  0
    9.5333   -0.3144    0.0000 C   0  0  0  0  0  0  0  0  0  0  0  0
    6.5803   -4.5454    0.0000 C   0  0  0  0  0  0  0  0  0  0  0  0
    6.5679   -1.5137    0.0000 C   0  0  0  0  0  0  0  0  0  0  0  0
    6.1584   -5.2527    0.0000 C   0  0  0  0  0  0  0  0  0  0  0  0
    0.0042   -5.2402    0.0000 C   0  0  0  0  0  0  0  0  0  0  0  0
    4.5537   -5.4842    0.0000 C   0  0  0  0  0  0  0  0  0  0  0  0
    3.1185   -5.4718    0.0000 C   0  0  0  0  0  0  0  0  0  0  0  0
    1.0050   -2.5602    0.0000 C   0  0  0  0  0  0  0  0  0  0  0  0
    2.4361   -2.5726    0.0000 C   0  0  0  0  0  0  0  0  0  0  0  0
    6.7416   -0.7072    0.0000 C   0  0  0  0  0  0  0  0  0  0  0  0
    6.1336   -0.1531    0.0000 C   0  0  0  0  0  0  0  0  0  0  0  0
  2  1  1  0  0  0  0
  9  3  1  1  0  0  0
  4 15  1  0  0  0  0
  5  6  1  0  0  0  0
  8  6  1  6  0  0  0
  7 11  1  0  0  0  0
  8  2  1  0  0  0  0
  9  1  1  0  0  0  0
 10  3  1  0  0  0  0
 11 10  1  0  0  0  0
 12  5  1  0  0  0  0
 12 13  1  1  0  0  0
 14  7  1  0  0  0  0
 15 24  1  0  0  0  0
 16 13  1  0  0  0  0
 17  4  1  0  0  0  0
 18  2  2  0  0  0  0
 19  4  2  0  0  0  0
 20  3  2  0  0  0  0
 21  7  2  0  0  0  0
 22  5  2  0  0  0  0
 23 16  2  0  0  0  0
 24 31  2  0  0  0  0
 25 30  1  0  0  0  0
  8 26  1  0  0  0  0
 27 14  1  0  0  0  0
 28  1  1  0  0  0  0
 12 29  1  0  0  0  0
 30 27  2  0  0  0  0
 31 27  1  0  0  0  0
  9 32  1  0  0  0  0
 33 11  1  0  0  0  0
 34 28  1  0  0  0  0
 35 16  1  0  0  0  0
 36 26  1  0  0  0  0
 37 26  1  0  0  0  0
 38 29  1  0  0  0  0
 39 29  1  0  0  0  0
 40 33  1  0  0  0  0
 41 40  1  0  0  0  0
 32 34  1  0  0  0  0
 25 15  2  0  0  0  0
M  CHG  2   4   1  17  -1
M  END
>  <Mol Weight>
576.6419

>  <Formula>
C27H40N6O8

>  <chembl_id>
CHEMBL6520

$$$$

  Mrv0541 06201412482D          

 43 46  0  0  1  0            999 V2000
   -0.3376   -4.3495    0.0000 N   0  0  0  0  0  0  0  0  0  0  0  0
   -1.0072   -3.8688    0.0000 C   0  0  0  0  0  0  0  0  0  0  0  0
   -1.6768   -4.3495    0.0000 N   0  0  0  0  0  0  0  0  0  0  0  0
    6.1980   -4.4868    0.0000 C   0  0  0  0  0  0  0  0  0  0  0  0
   -1.4192   -5.1393    0.0000 C   0  0  0  0  0  0  0  0  0  0  0  0
    6.9763   -4.2293    0.0000 N   0  0  0  0  0  0  0  0  0  0  0  0
    8.4700   -7.4914    0.0000 C   0  0  0  0  0  0  0  0  0  0  0  0
   -0.5951   -5.1393    0.0000 C   0  0  0  0  0  0  0  0  0  0  0  0
    9.2598   -7.2339    0.0000 C   0  0  0  0  0  0  0  0  0  0  0  0
    7.8633   -6.9420    0.0000 C   0  0  0  0  0  0  0  0  0  0  0  0
    6.0320   -5.2938    0.0000 O   0  0  0  0  0  0  0  0  0  0  0  0
    8.0408   -6.1351    0.0000 C   0  0  0  0  0  0  0  0  0  0  0  0
    5.5857   -3.9374    0.0000 C   0  0  0  0  0  0  0  0  0  0  0  0
    9.4315   -6.4269    0.0000 C   0  0  0  0  0  0  0  0  0  0  0  0
    7.5944   -4.7787    0.0000 C   0  0  2  0  0  0  0  0  0  0  0  0
    7.4227   -5.5857    0.0000 C   0  0  0  0  0  0  0  0  0  0  0  0
    4.7959   -4.1892    0.0000 C   0  0  0  0  0  0  0  0  0  0  0  0
    8.8134   -5.8775    0.0000 C   0  0  0  0  0  0  0  0  0  0  0  0
    9.8779   -7.7833    0.0000 O   0  0  0  0  0  0  0  0  0  0  0  0
    3.2335   -4.6929    0.0000 C   0  0  0  0  0  0  0  0  0  0  0  0
    0.4464   -4.1034    0.0000 C   0  0  0  0  0  0  0  0  0  0  0  0
    4.1892   -3.6398    0.0000 C   0  0  0  0  0  0  0  0  0  0  0  0
    4.6242   -4.9961    0.0000 C   0  0  0  0  0  0  0  0  0  0  0  0
    6.5643   -9.6203    0.0000 N   0  0  0  0  0  0  0  0  0  0  0  0
    3.8458   -5.2537    0.0000 C   0  0  0  0  0  0  0  0  0  0  0  0
    3.4052   -3.8973    0.0000 C   0  0  0  0  0  0  0  0  0  0  0  0
   -1.0072   -3.0447    0.0000 C   0  0  0  0  0  0  0  0  0  0  0  0
   10.6505   -7.5257    0.0000 C   0  0  0  0  0  0  0  0  0  0  0  0
    8.9851   -5.0706    0.0000 O   0  0  0  0  0  0  0  0  0  0  0  0
    8.2983   -8.2983    0.0000 C   0  0  0  0  0  0  0  0  0  0  0  0
   12.0526   -7.8290    0.0000 C   0  0  0  0  0  0  0  0  0  0  0  0
    8.3784   -4.5212    0.0000 C   0  0  0  0  0  0  0  0  0  0  0  0
   11.2686   -8.0865    0.0000 C   0  0  0  0  0  0  0  0  0  0  0  0
    7.3540   -9.3628    0.0000 C   0  0  0  0  0  0  0  0  0  0  0  0
    2.4551   -4.9504    0.0000 C   0  0  0  0  0  0  0  0  0  0  0  0
    1.0531   -4.6528    0.0000 C   0  0  0  0  0  0  0  0  0  0  0  0
    7.5200   -8.5559    0.0000 C   0  0  0  0  0  0  0  0  0  0  0  0
   12.2128   -7.0221    0.0000 C   0  0  0  0  0  0  0  0  0  0  0  0
   12.6592   -8.3842    0.0000 C   0  0  0  0  0  0  0  0  0  0  0  0
    1.8428   -4.4010    0.0000 C   0  0  0  0  0  0  0  0  0  0  0  0
   13.4432   -8.1266    0.0000 C   0  0  0  0  0  0  0  0  0  0  0  0
   13.0026   -6.7703    0.0000 C   0  0  0  0  0  0  0  0  0  0  0  0
   13.6207   -7.3197    0.0000 C   0  0  0  0  0  0  0  0  0  0  0  0
  2  1  1  0  0  0  0
  3  2  2  0  0  0  0
  4 13  1  0  0  0  0
  5  8  2  0  0  0  0
  6  4  1  0  0  0  0
  7 10  1  0  0  0  0
  8  1  1  0  0  0  0
  9 14  1  0  0  0  0
 10 12  2  0  0  0  0
 11  4  2  0  0  0  0
 12 16  1  0  0  0  0
 13 17  1  0  0  0  0
 14 18  2  0  0  0  0
 15  6  1  0  0  0  0
 15 16  1  1  0  0  0
 17 22  1  0  0  0  0
 18 12  1  0  0  0  0
 19  9  1  0  0  0  0
 20 35  1  0  0  0  0
 21  1  1  0  0  0  0
 22 26  2  0  0  0  0
 23 25  1  0  0  0  0
 24 34  1  0  0  0  0
 25 20  2  0  0  0  0
 26 20  1  0  0  0  0
 27  2  1  0  0  0  0
 28 19  1  0  0  0  0
 29 32  1  0  0  0  0
 30  7  1  0  0  0  0
 31 33  1  0  0  0  0
 32 15  1  0  0  0  0
 33 28  1  0  0  0  0
 34 37  1  0  0  0  0
 35 40  1  0  0  0  0
 36 21  1  0  0  0  0
 37 30  1  0  0  0  0
 38 31  1  0  0  0  0
 39 31  1  0  0  0  0
 40 36  1  0  0  0  0
 41 39  1  0  0  0  0
 42 38  1  0  0  0  0
 43 41  1  0  0  0  0
  5  3  1  0  0  0  0
 17 23  2  0  0  0  0
  9  7  2  0  0  0  0
 43 42  1  0  0  0  0
M  END
>  <Mol Weight>
588.8231

>  <Formula>
C36H52N4O3

>  <chembl_id>
CHEMBL6242

$$$$

  Mrv0541 06201412482D          

 42 46  0  0  0  0            999 V2000
    2.7547   -3.8674    0.0000 C   0  0  0  0  0  0  0  0  0  0  0  0
    3.4256   -1.3628    0.0000 C   0  0  0  0  0  0  0  0  0  0  0  0
    5.2468   -4.6884    0.0000 C   0  0  0  0  0  0  0  0  0  0  0  0
    3.5799   -3.8882    0.0000 N   0  0  0  0  0  0  0  0  0  0  0  0
    4.8967   -2.2546    0.0000 N   0  0  0  0  0  0  0  0  0  0  0  0
    5.6969   -2.4630    0.0000 C   0  0  0  0  0  0  0  0  0  0  0  0
    2.6380   -2.4422    0.0000 C   0  0  0  0  0  0  0  0  0  0  0  0
    6.1428   -3.7007    0.0000 C   0  0  0  0  0  0  0  0  0  0  0  0
    4.8551   -1.4336    0.0000 C   0  0  0  0  0  0  0  0  0  0  0  0
    3.4256   -2.1879    0.0000 N   0  0  0  0  0  0  0  0  0  0  0  0
    5.3343   -3.8674    0.0000 N   0  0  0  0  0  0  0  0  0  0  0  0
    2.6422   -1.1085    0.0000 C   0  0  0  0  0  0  0  0  0  0  0  0
    5.9969   -5.0259    0.0000 C   0  0  0  0  0  0  0  0  0  0  0  0
    2.2837   -3.1881    0.0000 C   0  0  0  0  0  0  0  0  0  0  0  0
    4.1591   -0.9877    0.0000 C   0  0  0  0  0  0  0  0  0  0  0  0
    3.8174   -4.6801    0.0000 C   0  0  0  0  0  0  0  0  0  0  0  0
    6.4845   -2.9463    0.0000 C   0  0  0  0  0  0  0  0  0  0  0  0
    4.5300   -5.0967    0.0000 C   0  0  0  0  0  0  0  0  0  0  0  0
    6.5512   -4.4175    0.0000 C   0  0  0  0  0  0  0  0  0  0  0  0
    2.1587   -1.7753    0.0000 C   0  0  0  0  0  0  0  0  0  0  0  0
    2.4797   -4.6467    0.0000 C   0  0  0  0  0  0  0  0  0  0  0  0
    6.1428   -1.7711    0.0000 C   0  0  0  0  0  0  0  0  0  0  0  0
    2.3879   -0.3209    0.0000 C   0  0  0  0  0  0  0  0  0  0  0  0
    6.1636   -5.8344    0.0000 C   0  0  0  0  0  0  0  0  0  0  0  0
    2.1712    0.4834    0.0000 C   0  0  0  0  0  0  0  0  0  0  0  0
    6.3720   -6.6304    0.0000 C   0  0  0  0  0  0  0  0  0  0  0  0
    5.6177   -1.1335    0.0000 C   0  0  0  0  0  0  0  0  0  0  0  0
    3.1381   -5.1468    0.0000 C   0  0  0  0  0  0  0  0  0  0  0  0
    2.5338    1.8628    0.0000 N   0  3  0  0  0  0  0  0  0  0  0  0
    6.0011   -8.0057    0.0000 N   0  3  0  0  0  0  0  0  0  0  0  0
    6.5845   -7.4264    0.0000 C   0  0  0  0  0  0  0  0  0  0  0  0
    1.9546    1.2794    0.0000 C   0  0  0  0  0  0  0  0  0  0  0  0
    2.2587   -5.4427    0.0000 C   0  0  0  0  0  0  0  0  0  0  0  0
    1.6545   -4.6426    0.0000 C   0  0  0  0  0  0  0  0  0  0  0  0
    6.8555   -2.1796    0.0000 C   0  0  0  0  0  0  0  0  0  0  0  0
    6.5470   -1.0544    0.0000 C   0  0  0  0  0  0  0  0  0  0  0  0
    3.3339    1.6503    0.0000 C   0  0  0  0  0  0  0  0  0  0  0  0
    1.7086    1.8586    0.0000 C   0  0  0  0  0  0  0  0  0  0  0  0
    2.3171    2.6588    0.0000 C   0  0  0  0  0  0  0  0  0  0  0  0
    6.2095   -8.8058    0.0000 C   0  0  0  0  0  0  0  0  0  0  0  0
    5.2052   -7.7931    0.0000 C   0  0  0  0  0  0  0  0  0  0  0  0
    6.8263   -8.0098    0.0000 C   0  0  0  0  0  0  0  0  0  0  0  0
  2 10  1  0  0  0  0
  3 18  2  0  0  0  0
  4  1  1  0  0  0  0
  5  9  1  0  0  0  0
  6  5  2  0  0  0  0
  7 14  1  0  0  0  0
  8 11  1  0  0  0  0
  9 15  2  0  0  0  0
 10  7  1  0  0  0  0
 11  3  1  0  0  0  0
 12 20  1  0  0  0  0
 13  3  1  0  0  0  0
 14  1  2  0  0  0  0
 15  2  1  0  0  0  0
 16  4  2  0  0  0  0
 17  8  2  0  0  0  0
 18 16  1  0  0  0  0
 19 13  2  0  0  0  0
 20  7  2  0  0  0  0
 21  1  1  0  0  0  0
 22 27  1  0  0  0  0
 23 12  1  0  0  0  0
 24 13  1  0  0  0  0
 25 23  3  0  0  0  0
 26 24  3  0  0  0  0
 27  9  1  0  0  0  0
 28 21  1  0  0  0  0
 29 32  1  0  0  0  0
 30 31  1  0  0  0  0
 31 26  1  0  0  0  0
 32 25  1  0  0  0  0
 33 21  1  0  0  0  0
 34 21  1  0  0  0  0
 35 22  1  0  0  0  0
 36 22  1  0  0  0  0
 37 29  1  0  0  0  0
 38 29  1  0  0  0  0
 39 29  1  0  0  0  0
 40 30  1  0  0  0  0
 41 30  1  0  0  0  0
 42 30  1  0  0  0  0
 16 28  1  0  0  0  0
 12  2  2  0  0  0  0
  8 19  1  0  0  0  0
 17  6  1  0  0  0  0
 22  6  1  0  0  0  0
M  CHG  2  29   1  30   1
M  END
>  <Mol Weight>
562.7895

>  <Formula>
C36H46N6

>  <chembl_id>
CHEMBL1199148

$$$$

  Mrv0541 06201412482D          

 42 45  0  0  0  0            999 V2000
   12.3497   -3.7850    0.0000 N   0  0  0  0  0  0  0  0  0  0  0  0
   12.0848   -4.5973    0.0000 C   0  0  0  0  0  0  0  0  0  0  0  0
    3.9793   -4.6973    0.0000 N   0  0  0  0  0  0  0  0  0  0  0  0
    3.5025   -5.3684    0.0000 C   0  0  0  0  0  0  0  0  0  0  0  0
   11.2372   -4.5973    0.0000 N   0  0  0  0  0  0  0  0  0  0  0  0
   11.6727   -3.2905    0.0000 C   0  0  0  0  0  0  0  0  0  0  0  0
    4.7563   -4.9622    0.0000 C   0  0  0  0  0  0  0  0  0  0  0  0
    3.9793   -6.0277    0.0000 O   0  0  0  0  0  0  0  0  0  0  0  0
   10.9723   -3.7850    0.0000 O   0  0  0  0  0  0  0  0  0  0  0  0
    4.7563   -5.7805    0.0000 C   0  0  0  0  0  0  0  0  0  0  0  0
    0.2119   -5.3567    0.0000 C   0  0  0  0  0  0  0  0  0  0  0  0
    9.7891   -4.3678    0.0000 C   0  0  0  0  0  0  0  0  0  0  0  0
    8.9945   -4.6680    0.0000 C   0  0  0  0  0  0  0  0  0  0  0  0
    2.6725   -5.3684    0.0000 C   0  0  0  0  0  0  0  0  0  0  0  0
   10.4425   -4.8975    0.0000 C   0  0  0  0  0  0  0  0  0  0  0  0
    1.0302   -5.3684    0.0000 C   0  0  0  0  0  0  0  0  0  0  0  0
    8.2528   -4.1735    0.0000 C   0  0  0  0  0  0  0  0  0  0  0  0
   12.5793   -5.2801    0.0000 O   0  0  0  0  0  0  0  0  0  0  0  0
    5.4273   -4.4737    0.0000 C   0  0  0  0  0  0  0  0  0  0  0  0
   11.6787   -2.4429    0.0000 O   0  0  0  0  0  0  0  0  0  0  0  0
    7.5817   -4.6620    0.0000 C   0  0  0  0  0  0  0  0  0  0  0  0
    2.2663   -4.6503    0.0000 C   0  0  0  0  0  0  0  0  0  0  0  0
    2.2604   -6.0807    0.0000 C   0  0  0  0  0  0  0  0  0  0  0  0
    1.4481   -4.6503    0.0000 C   0  0  0  0  0  0  0  0  0  0  0  0
    1.4363   -6.0807    0.0000 C   0  0  0  0  0  0  0  0  0  0  0  0
    0.4298   -4.5737    0.0000 F   0  0  0  0  0  0  0  0  0  0  0  0
   -0.1943   -4.6503    0.0000 F   0  0  0  0  0  0  0  0  0  0  0  0
   -0.2060   -6.0630    0.0000 F   0  0  0  0  0  0  0  0  0  0  0  0
    6.1807   -4.8092    0.0000 O   0  0  0  0  0  0  0  0  0  0  0  0
    6.8400   -4.3148    0.0000 C   0  0  0  0  0  0  0  0  0  0  0  0
    5.4273   -6.2573    0.0000 C   0  0  0  0  0  0  0  0  0  0  0  0
    8.1645   -3.3612    0.0000 C   0  0  0  0  0  0  0  0  0  0  0  0
    8.8002   -5.4450    0.0000 C   0  0  0  0  0  0  0  0  0  0  0  0
    7.4169   -3.0257    0.0000 C   0  0  0  0  0  0  0  0  0  0  0  0
    6.7517   -3.5025    0.0000 C   0  0  0  0  0  0  0  0  0  0  0  0
    7.9820   -5.6569    0.0000 C   0  0  0  0  0  0  0  0  0  0  0  0
    5.6745   -8.5530    0.0000 C   0  0  0  0  0  0  0  0  0  0  0  0
    5.8982   -7.7407    0.0000 C   0  0  0  0  0  0  0  0  0  0  0  0
    6.7164   -7.5228    0.0000 C   0  0  0  0  0  0  0  0  0  0  0  0
    7.7583   -6.4869    0.0000 C   0  0  0  0  0  0  0  0  0  0  0  0
    6.9401   -6.6988    0.0000 C   0  0  0  0  0  0  0  0  0  0  0  0
    4.8622   -8.7766    0.0000 C   0  0  0  0  0  0  0  0  0  0  0  0
  2  1  1  0  0  0  0
  3  7  1  0  0  0  0
  4  3  2  0  0  0  0
  5  2  1  0  0  0  0
  6  1  1  0  0  0  0
  7 19  1  0  0  0  0
  8 10  1  0  0  0  0
  9  6  1  0  0  0  0
 10  7  2  0  0  0  0
 11 16  1  0  0  0  0
 12 15  1  0  0  0  0
 13 12  2  0  0  0  0
 14  4  1  0  0  0  0
 15  5  1  0  0  0  0
 16 25  1  0  0  0  0
 17 13  1  0  0  0  0
 18  2  2  0  0  0  0
 19 29  1  0  0  0  0
 20  6  2  0  0  0  0
 21 17  1  0  0  0  0
 22 14  2  0  0  0  0
 23 14  1  0  0  0  0
 24 22  1  0  0  0  0
 25 23  2  0  0  0  0
 26 11  1  0  0  0  0
 27 11  1  0  0  0  0
 28 11  1  0  0  0  0
 29 30  1  0  0  0  0
 30 21  2  0  0  0  0
 31 10  1  0  0  0  0
 32 17  2  0  0  0  0
 33 13  1  0  0  0  0
 34 32  1  0  0  0  0
 35 34  2  0  0  0  0
 36 33  1  0  0  0  0
 37 38  1  0  0  0  0
 38 39  1  0  0  0  0
 39 41  1  0  0  0  0
 40 36  1  0  0  0  0
 41 40  1  0  0  0  0
 42 37  1  0  0  0  0
  5  9  1  0  0  0  0
 30 35  1  0  0  0  0
  8  4  1  0  0  0  0
 16 24  2  0  0  0  0
M  END
>  <Mol Weight>
585.614

>  <Formula>
C31H34F3N3O5

>  <chembl_id>
CHEMBL6510

$$$$

  Mrv0541 06201412482D          

 43 47  0  0  0  0            999 V2000
    3.5625   -0.8875    0.0000 C   0  0  0  0  0  0  0  0  0  0  0  0
    2.1292   -0.8667    0.0000 C   0  0  0  0  0  0  0  0  0  0  0  0
    2.8542   -0.4667    0.0000 C   0  0  0  0  0  0  0  0  0  0  0  0
    1.4250   -0.4500    0.0000 C   0  0  0  0  0  0  0  0  0  0  0  0
    3.5500   -1.7125    0.0000 P   0  0  0  0  0  0  0  0  0  0  0  0
    4.2792   -0.4792    0.0000 C   0  0  0  0  0  0  0  0  0  0  0  0
    1.4292    0.3750    0.0000 C   0  0  0  0  0  0  0  0  0  0  0  0
    2.1292   -1.6917    0.0000 C   0  0  0  0  0  0  0  0  0  0  0  0
    0.7042   -0.8542    0.0000 C   0  0  0  0  0  0  0  0  0  0  0  0
    4.2875    0.3333    0.0000 C   0  0  0  0  0  0  0  0  0  0  0  0
   -2.8458    0.3708    0.0000 C   0  0  0  0  0  0  0  0  0  0  0  0
    0.7167    0.7958    0.0000 N   0  0  0  0  0  0  0  0  0  0  0  0
    1.4167   -2.1000    0.0000 C   0  0  0  0  0  0  0  0  0  0  0  0
    0.7042   -1.6792    0.0000 C   0  0  0  0  0  0  0  0  0  0  0  0
    4.3667   -1.7292    0.0000 O   0  0  0  0  0  0  0  0  0  0  0  0
    2.8625    0.3583    0.0000 O   0  0  0  0  0  0  0  0  0  0  0  0
    2.1500    0.7833    0.0000 O   0  0  0  0  0  0  0  0  0  0  0  0
   -2.8458   -0.4542    0.0000 O   0  0  0  0  0  0  0  0  0  0  0  0
   -3.5625    0.7750    0.0000 C   0  0  0  0  0  0  0  0  0  0  0  0
    3.5292   -2.5375    0.0000 O   0  0  0  0  0  0  0  0  0  0  0  0
    2.7167   -1.7000    0.0000 O   0  0  0  0  0  0  0  0  0  0  0  0
   -2.1375    0.7833    0.0000 N   0  0  0  0  0  0  0  0  0  0  0  0
    5.0042    0.7458    0.0000 C   0  0  0  0  0  0  0  0  0  0  0  0
    4.9917   -0.9042    0.0000 C   0  0  0  0  0  0  0  0  0  0  0  0
   -0.7083    0.7958    0.0000 C   0  0  0  0  0  0  0  0  0  0  0  0
    0.0042    0.3833    0.0000 C   0  0  0  0  0  0  0  0  0  0  0  0
    3.5792    0.7625    0.0000 C   0  0  0  0  0  0  0  0  0  0  0  0
    5.7042   -0.5042    0.0000 C   0  0  0  0  0  0  0  0  0  0  0  0
   -1.4208    0.3750    0.0000 C   0  0  0  0  0  0  0  0  0  0  0  0
    0.7167    1.6208    0.0000 C   0  0  0  0  0  0  0  0  0  0  0  0
    1.4167   -2.9167    0.0000 C   0  0  0  0  0  0  0  0  0  0  0  0
   -0.0125   -2.0917    0.0000 C   0  0  0  0  0  0  0  0  0  0  0  0
    5.7167    0.3208    0.0000 C   0  0  0  0  0  0  0  0  0  0  0  0
   -4.2833    0.3583    0.0000 C   0  0  0  0  0  0  0  0  0  0  0  0
   -3.5708    1.6000    0.0000 C   0  0  0  0  0  0  0  0  0  0  0  0
    5.0125    1.5708    0.0000 C   0  0  0  0  0  0  0  0  0  0  0  0
    3.5792    1.5708    0.0000 C   0  0  0  0  0  0  0  0  0  0  0  0
   -0.0208   -2.9167    0.0000 C   0  0  0  0  0  0  0  0  0  0  0  0
    0.7042   -3.3292    0.0000 C   0  0  0  0  0  0  0  0  0  0  0  0
   -4.2833    2.0208    0.0000 C   0  0  0  0  0  0  0  0  0  0  0  0
   -4.9958    0.7708    0.0000 C   0  0  0  0  0  0  0  0  0  0  0  0
    4.3042    1.9833    0.0000 C   0  0  0  0  0  0  0  0  0  0  0  0
   -4.9958    1.5958    0.0000 C   0  0  0  0  0  0  0  0  0  0  0  0
  2  3  1  0  0  0  0
  3  1  1  0  0  0  0
  4  2  2  0  0  0  0
  5  1  1  0  0  0  0
  6  1  1  0  0  0  0
  7  4  1  0  0  0  0
  8  2  1  0  0  0  0
  9  4  1  0  0  0  0
 10  6  1  0  0  0  0
 11 22  1  0  0  0  0
 12  7  1  0  0  0  0
 13  8  2  0  0  0  0
 14 13  1  0  0  0  0
 15  5  2  0  0  0  0
 16  3  2  0  0  0  0
 17  7  2  0  0  0  0
 18 11  2  0  0  0  0
 19 11  1  0  0  0  0
 20  5  1  0  0  0  0
 21  5  1  0  0  0  0
 22 29  1  0  0  0  0
 23 10  1  0  0  0  0
 24  6  2  0  0  0  0
 25 26  1  0  0  0  0
 26 12  1  0  0  0  0
 27 10  2  0  0  0  0
 28 24  1  0  0  0  0
 29 25  1  0  0  0  0
 30 12  1  0  0  0  0
 31 13  1  0  0  0  0
 32 14  1  0  0  0  0
 33 28  2  0  0  0  0
 34 19  2  0  0  0  0
 35 19  1  0  0  0  0
 36 23  2  0  0  0  0
 37 27  1  0  0  0  0
 38 39  1  0  0  0  0
 39 31  2  0  0  0  0
 40 35  2  0  0  0  0
 41 34  1  0  0  0  0
 42 37  2  0  0  0  0
 43 40  1  0  0  0  0
 23 33  1  0  0  0  0
 36 42  1  0  0  0  0
  9 14  2  0  0  0  0
 32 38  2  0  0  0  0
 41 43  2  0  0  0  0
M  END
>  <Mol Weight>
594.5935

>  <Formula>
C34H31N2O6P

>  <chembl_id>
CHEMBL167990

$$$$

  Mrv0541 06201412482D          

 37 40  0  0  0  0            999 V2000
   -0.5088   -2.7945    0.0000 C   0  0  0  0  0  0  0  0  0  0  0  0
   -1.2095   -2.3899    0.0000 C   0  0  0  0  0  0  0  0  0  0  0  0
   -0.4963   -3.6203    0.0000 C   0  0  0  0  0  0  0  0  0  0  0  0
    0.2044   -2.3774    0.0000 C   0  0  0  0  0  0  0  0  0  0  0  0
    8.7337   -1.3555    0.0000 N   0  0  0  0  0  0  0  0  0  0  0  0
   -1.2220   -1.5557    0.0000 C   0  0  0  0  0  0  0  0  0  0  0  0
    0.2169   -4.0207    0.0000 C   0  0  0  0  0  0  0  0  0  0  0  0
    0.2044   -1.5641    0.0000 C   0  0  0  0  0  0  0  0  0  0  0  0
    0.9301   -2.7820    0.0000 C   0  0  0  0  0  0  0  0  0  0  0  0
   -1.2095   -4.0332    0.0000 C   0  0  0  0  0  0  0  0  0  0  0  0
   -0.4838   -5.2677    0.0000 C   0  0  0  0  0  0  0  0  0  0  0  0
    1.6183   -1.5515    0.0000 C   0  0  0  0  0  0  0  0  0  0  0  0
   -1.1970   -4.8590    0.0000 C   0  0  0  0  0  0  0  0  0  0  0  0
    0.2294   -4.8465    0.0000 C   0  0  0  0  0  0  0  0  0  0  0  0
    1.6433   -2.3691    0.0000 C   0  0  0  0  0  0  0  0  0  0  0  0
    0.9176   -1.1428    0.0000 C   0  0  0  0  0  0  0  0  0  0  0  0
   -0.4713   -6.0978    0.0000 I   0  0  0  0  0  0  0  0  0  0  0  0
   -1.9227   -2.8070    0.0000 C   0  0  0  0  0  0  0  0  0  0  0  0
    2.3315   -1.1303    0.0000 O   0  0  0  0  0  0  0  0  0  0  0  0
    7.9996   -0.9760    0.0000 C   0  0  0  0  0  0  0  0  0  0  0  0
    8.8505   -2.1689    0.0000 C   0  0  0  0  0  0  0  0  0  0  0  0
    9.4636   -0.9802    0.0000 C   0  0  0  0  0  0  0  0  0  0  0  0
   -0.5088   -1.1428    0.0000 C   0  0  0  0  0  0  0  0  0  0  0  0
   -1.9477   -1.1386    0.0000 C   0  0  0  0  0  0  0  0  0  0  0  0
    3.0447   -1.5307    0.0000 C   0  0  0  0  0  0  0  0  0  0  0  0
    7.3115   -1.4181    0.0000 C   0  0  0  0  0  0  0  0  0  0  0  0
   -1.9227   -3.6203    0.0000 C   0  0  0  0  0  0  0  0  0  0  0  0
    3.7579   -1.1053    0.0000 C   0  0  0  0  0  0  0  0  0  0  0  0
    5.1718   -1.0761    0.0000 C   0  0  0  0  0  0  0  0  0  0  0  0
    5.8850   -1.4682    0.0000 C   0  0  0  0  0  0  0  0  0  0  0  0
    6.5857   -1.0302    0.0000 C   0  0  0  0  0  0  0  0  0  0  0  0
    4.4711   -1.5015    0.0000 C   0  0  0  0  0  0  0  0  0  0  0  0
   10.0475   -1.5683    0.0000 C   0  0  0  0  0  0  0  0  0  0  0  0
    9.6638   -2.3023    0.0000 C   0  0  0  0  0  0  0  0  0  0  0  0
   -0.5088   -0.3170    0.0000 C   0  0  0  0  0  0  0  0  0  0  0  0
   -1.9477   -0.3253    0.0000 C   0  0  0  0  0  0  0  0  0  0  0  0
   -1.2345    0.0959    0.0000 C   0  0  0  0  0  0  0  0  0  0  0  0
  2  1  2  0  0  0  0
  3  1  1  0  0  0  0
  4  1  1  0  0  0  0
  5 20  1  0  0  0  0
  6  2  1  0  0  0  0
  7  3  1  0  0  0  0
  8  4  1  0  0  0  0
  9  4  2  0  0  0  0
 10  3  2  0  0  0  0
 11 13  2  0  0  0  0
 12 15  2  0  0  0  0
 13 10  1  0  0  0  0
 14  7  2  0  0  0  0
 15  9  1  0  0  0  0
 16  8  2  0  0  0  0
 17 11  1  0  0  0  0
 18  2  1  0  0  0  0
 19 12  1  0  0  0  0
 20 26  1  0  0  0  0
 21  5  1  0  0  0  0
 22  5  1  0  0  0  0
 23  6  1  0  0  0  0
 24  6  2  0  0  0  0
 25 19  1  0  0  0  0
 26 31  1  0  0  0  0
 27 18  1  0  0  0  0
 28 25  1  0  0  0  0
 29 32  1  0  0  0  0
 30 29  1  0  0  0  0
 31 30  1  0  0  0  0
 32 28  1  0  0  0  0
 33 22  1  0  0  0  0
 34 21  1  0  0  0  0
 35 23  2  0  0  0  0
 36 24  1  0  0  0  0
 37 36  2  0  0  0  0
 12 16  1  0  0  0  0
 14 11  1  0  0  0  0
 37 35  1  0  0  0  0
 34 33  1  0  0  0  0
M  END
>  <Mol Weight>
607.6079

>  <Formula>
C34H42INO

>  <chembl_id>
CHEMBL6410

$$$$

  Mrv0541 06201412482D          

 44 48  0  0  0  0            999 V2000
    4.0042   -3.4292    0.0000 S   0  0  0  0  0  0  0  0  0  0  0  0
    0.4417   -2.1917    0.0000 N   0  0  0  0  0  0  0  0  0  0  0  0
    1.1542   -1.7875    0.0000 C   0  0  0  0  0  0  0  0  0  0  0  0
    1.1542   -0.9625    0.0000 C   0  0  0  0  0  0  0  0  0  0  0  0
   -0.2625   -1.7875    0.0000 C   0  0  0  0  0  0  0  0  0  0  0  0
   -0.2625   -0.9625    0.0000 N   0  0  0  0  0  0  0  0  0  0  0  0
    4.8292   -3.4292    0.0000 N   0  0  0  0  0  0  0  0  0  0  0  0
    0.4417   -0.5417    0.0000 C   0  0  0  0  0  0  0  0  0  0  0  0
    4.0125   -4.2542    0.0000 C   0  0  0  0  0  0  0  0  0  0  0  0
    5.1417   -2.6625    0.0000 C   0  0  0  0  0  0  0  0  0  0  0  0
    1.8667   -0.5625    0.0000 C   0  0  0  0  0  0  0  0  0  0  0  0
    3.3000   -4.6667    0.0000 C   0  0  0  0  0  0  0  0  0  0  0  0
    3.2917   -3.0167    0.0000 O   0  0  0  0  0  0  0  0  0  0  0  0
    4.0042   -2.6042    0.0000 O   0  0  0  0  0  0  0  0  0  0  0  0
    0.4417   -3.0167    0.0000 C   0  0  0  0  0  0  0  0  0  0  0  0
    1.8792    0.2625    0.0000 C   0  0  0  0  0  0  0  0  0  0  0  0
    5.9625   -2.5542    0.0000 N   0  0  0  0  0  0  0  0  0  0  0  0
    1.8667   -2.2000    0.0000 O   0  0  0  0  0  0  0  0  0  0  0  0
    2.5875   -4.2542    0.0000 C   0  0  0  0  0  0  0  0  0  0  0  0
    4.6417   -2.0125    0.0000 O   0  0  0  0  0  0  0  0  0  0  0  0
    0.4500    0.2833    0.0000 C   0  0  0  0  0  0  0  0  0  0  0  0
    1.1667    0.6833    0.0000 C   0  0  0  0  0  0  0  0  0  0  0  0
    1.8667   -4.6667    0.0000 C   0  0  0  0  0  0  0  0  0  0  0  0
    2.5792   -3.4292    0.0000 C   0  0  0  0  0  0  0  0  0  0  0  0
    1.1625   -3.4292    0.0000 C   0  0  0  0  0  0  0  0  0  0  0  0
    2.6000    0.6708    0.0000 C   0  0  0  0  0  0  0  0  0  0  0  0
    6.2750   -1.7917    0.0000 C   0  0  0  0  0  0  0  0  0  0  0  0
   -0.9833   -2.2000    0.0000 C   0  0  0  0  0  0  0  0  0  0  0  0
    1.8667   -3.0167    0.0000 C   0  0  0  0  0  0  0  0  0  0  0  0
    1.1542   -4.2542    0.0000 C   0  0  0  0  0  0  0  0  0  0  0  0
    4.7250   -4.6625    0.0000 C   0  0  0  0  0  0  0  0  0  0  0  0
    3.3000   -5.4917    0.0000 C   0  0  0  0  0  0  0  0  0  0  0  0
    2.6125    1.4958    0.0000 C   0  0  0  0  0  0  0  0  0  0  0  0
    3.3125    0.2458    0.0000 C   0  0  0  0  0  0  0  0  0  0  0  0
    7.0917   -1.6792    0.0000 C   0  0  0  0  0  0  0  0  0  0  0  0
    5.7667   -1.1417    0.0000 C   0  0  0  0  0  0  0  0  0  0  0  0
   -1.6958   -1.7875    0.0000 C   0  0  0  0  0  0  0  0  0  0  0  0
   -2.4083   -2.2000    0.0000 C   0  0  0  0  0  0  0  0  0  0  0  0
    4.7292   -5.4917    0.0000 C   0  0  0  0  0  0  0  0  0  0  0  0
    4.0167   -5.9042    0.0000 C   0  0  0  0  0  0  0  0  0  0  0  0
   -3.1208   -1.7875    0.0000 C   0  0  0  0  0  0  0  0  0  0  0  0
    6.0792   -0.3792    0.0000 C   0  0  0  0  0  0  0  0  0  0  0  0
    7.4042   -0.9250    0.0000 C   0  0  0  0  0  0  0  0  0  0  0  0
    6.9042   -0.2667    0.0000 C   0  0  0  0  0  0  0  0  0  0  0  0
  2 15  1  0  0  0  0
  3  2  1  0  0  0  0
  4  3  1  0  0  0  0
  5  2  1  0  0  0  0
  6  5  2  0  0  0  0
  7  1  1  0  0  0  0
  8  6  1  0  0  0  0
  9  1  1  0  0  0  0
 10  7  1  0  0  0  0
 11  4  2  0  0  0  0
 12  9  1  0  0  0  0
 13  1  2  0  0  0  0
 14  1  2  0  0  0  0
 15 25  1  0  0  0  0
 16 11  1  0  0  0  0
 17 10  1  0  0  0  0
 18  3  2  0  0  0  0
 19 12  1  0  0  0  0
 20 10  2  0  0  0  0
 21  8  2  0  0  0  0
 22 21  1  0  0  0  0
 23 19  2  0  0  0  0
 24 19  1  0  0  0  0
 25 29  1  0  0  0  0
 26 16  1  0  0  0  0
 27 17  1  0  0  0  0
 28  5  1  0  0  0  0
 29 24  2  0  0  0  0
 30 23  1  0  0  0  0
 31  9  2  0  0  0  0
 32 12  2  0  0  0  0
 33 26  1  0  0  0  0
 34 26  1  0  0  0  0
 35 27  2  0  0  0  0
 36 27  1  0  0  0  0
 37 28  1  0  0  0  0
 38 37  1  0  0  0  0
 39 31  1  0  0  0  0
 40 39  2  0  0  0  0
 41 38  1  0  0  0  0
 42 36  2  0  0  0  0
 43 35  1  0  0  0  0
 44 42  1  0  0  0  0
 32 40  1  0  0  0  0
 25 30  2  0  0  0  0
 43 44  2  0  0  0  0
  4  8  1  0  0  0  0
 16 22  2  0  0  0  0
M  END
>  <Mol Weight>
608.75

>  <Formula>
C35H36N4O4S

>  <chembl_id>
CHEMBL167929

$$$$

  Mrv0541 06201412482D          

 42 46  0  0  0  0            999 V2000
   12.0000   -8.3375    0.0000 N   0  0  0  0  0  0  0  0  0  0  0  0
    2.1917   -9.1542    0.0000 C   0  0  0  0  0  0  0  0  0  0  0  0
   11.9917   -9.0542    0.0000 C   0  0  0  0  0  0  0  0  0  0  0  0
   10.7542   -8.3292    0.0000 C   0  0  0  0  0  0  0  0  0  0  0  0
   11.3792   -7.9750    0.0000 C   0  0  0  0  0  0  0  0  0  0  0  0
    2.1875   -9.9792    0.0000 C   0  0  0  0  0  0  0  0  0  0  0  0
    0.7625   -9.9792    0.0000 C   0  0  0  0  0  0  0  0  0  0  0  0
   10.7542   -9.0542    0.0000 S   0  0  0  0  0  0  0  0  0  0  0  0
    1.4750   -8.7417    0.0000 C   0  0  0  0  0  0  0  0  0  0  0  0
    1.4750  -10.3917    0.0000 C   0  0  0  0  0  0  0  0  0  0  0  0
    0.7625   -9.1542    0.0000 C   0  0  0  0  0  0  0  0  0  0  0  0
    2.9042   -8.7375    0.0000 O   0  0  0  0  0  0  0  0  0  0  0  0
   10.0417   -7.9167    0.0000 C   0  0  0  0  0  0  0  0  0  0  0  0
    3.6167   -9.1542    0.0000 C   0  0  0  0  0  0  0  0  0  0  0  0
    0.0417  -10.3917    0.0000 O   0  0  0  0  0  0  0  0  0  0  0  0
    2.9042  -10.3917    0.0000 C   0  0  0  0  0  0  0  0  0  0  0  0
   12.5792   -9.6417    0.0000 O   0  0  0  0  0  0  0  0  0  0  0  0
   11.3750   -7.2500    0.0000 O   0  0  0  0  0  0  0  0  0  0  0  0
    4.3292   -9.5667    0.0000 C   0  0  0  0  0  0  0  0  0  0  0  0
    9.3292   -8.3292    0.0000 C   0  0  0  0  0  0  0  0  0  0  0  0
    3.6167   -9.9792    0.0000 C   0  0  0  0  0  0  0  0  0  0  0  0
   -0.6708   -9.9667    0.0000 C   0  0  0  0  0  0  0  0  0  0  0  0
    5.0417   -9.1542    0.0000 N   0  0  0  0  0  0  0  0  0  0  0  0
    7.9042   -9.1542    0.0000 C   0  0  0  0  0  0  0  0  0  0  0  0
    9.3292   -9.1542    0.0000 C   0  0  0  0  0  0  0  0  0  0  0  0
    8.6125   -7.9167    0.0000 C   0  0  0  0  0  0  0  0  0  0  0  0
    1.4667   -7.9167    0.0000 C   0  0  0  0  0  0  0  0  0  0  0  0
    1.4792  -11.2167    0.0000 C   0  0  0  0  0  0  0  0  0  0  0  0
    0.0500   -8.7417    0.0000 C   0  0  0  0  0  0  0  0  0  0  0  0
    8.6167   -9.5667    0.0000 C   0  0  0  0  0  0  0  0  0  0  0  0
    7.9000   -8.3292    0.0000 C   0  0  0  0  0  0  0  0  0  0  0  0
   -1.3833  -10.3750    0.0000 C   0  0  0  0  0  0  0  0  0  0  0  0
    7.1875   -9.5667    0.0000 O   0  0  0  0  0  0  0  0  0  0  0  0
    6.4750   -9.1542    0.0000 C   0  0  0  0  0  0  0  0  0  0  0  0
    4.3375   -8.7417    0.0000 C   0  0  0  0  0  0  0  0  0  0  0  0
    5.7542   -9.5667    0.0000 C   0  0  0  0  0  0  0  0  0  0  0  0
    5.0417   -8.3292    0.0000 C   0  0  0  0  0  0  0  0  0  0  0  0
   -2.0958   -9.9542    0.0000 C   0  0  0  0  0  0  0  0  0  0  0  0
   -1.3875  -11.2000    0.0000 C   0  0  0  0  0  0  0  0  0  0  0  0
   -2.1000  -11.6042    0.0000 C   0  0  0  0  0  0  0  0  0  0  0  0
   -2.8083  -10.3625    0.0000 C   0  0  0  0  0  0  0  0  0  0  0  0
   -2.8208  -11.1875    0.0000 C   0  0  0  0  0  0  0  0  0  0  0  0
  2 12  1  0  0  0  0
  3  1  1  0  0  0  0
  4  5  1  0  0  0  0
  5  1  1  0  0  0  0
  6 16  1  0  0  0  0
  7 10  1  0  0  0  0
  8  3  1  0  0  0  0
  9  2  2  0  0  0  0
 10  6  2  0  0  0  0
 11  9  1  0  0  0  0
 12 14  1  0  0  0  0
 13  4  2  0  0  0  0
 14 19  1  0  0  0  0
 15  7  1  0  0  0  0
 16 21  1  0  0  0  0
 17  3  2  0  0  0  0
 18  5  2  0  0  0  0
 19 23  1  0  0  0  0
 20 13  1  0  0  0  0
 21 14  1  0  0  0  0
 22 15  1  0  0  0  0
 23 36  1  0  0  0  0
 24 31  1  0  0  0  0
 25 20  2  0  0  0  0
 26 20  1  0  0  0  0
 27  9  1  0  0  0  0
 28 10  1  0  0  0  0
 29 11  1  0  0  0  0
 30 25  1  0  0  0  0
 31 26  2  0  0  0  0
 32 22  1  0  0  0  0
 33 24  1  0  0  0  0
 34 33  1  0  0  0  0
 35 14  1  0  0  0  0
 36 34  1  0  0  0  0
 37 23  1  0  0  0  0
 38 32  2  0  0  0  0
 39 32  1  0  0  0  0
 40 39  2  0  0  0  0
 41 38  1  0  0  0  0
 42 40  1  0  0  0  0
  8  4  1  0  0  0  0
 30 24  2  0  0  0  0
  6  2  1  0  0  0  0
  7 11  2  0  0  0  0
 42 41  2  0  0  0  0
M  END
>  <Mol Weight>
586.741

>  <Formula>
C34H38N2O5S

>  <chembl_id>
CHEMBL6514

$$$$

  Mrv0541 06201412482D          

 43 46  0  0  0  0            999 V2000
   29.4078  -13.7490    0.0000 C   0  0  1  0  0  0  0  0  0  0  0  0
   30.1296  -14.1560    0.0000 C   0  0  1  0  0  0  0  0  0  0  0  0
   30.8400  -13.7377    0.0000 C   0  0  0  0  0  0  0  0  0  0  0  0
   25.8395  -14.1999    0.0000 C   0  0  0  0  0  0  0  0  0  0  0  0
   25.8492  -15.0300    0.0000 C   0  0  0  0  0  0  0  0  0  0  0  0
   26.5645  -15.4382    0.0000 C   0  0  0  0  0  0  0  0  0  0  0  0
   27.2790  -15.0179    0.0000 C   0  0  0  0  0  0  0  0  0  0  0  0
   27.2692  -14.1830    0.0000 C   0  0  0  0  0  0  0  0  0  0  0  0
   26.5472  -13.7803    0.0000 C   0  0  0  0  0  0  0  0  0  0  0  0
   27.9796  -13.7604    0.0000 C   0  0  0  0  0  0  0  0  0  0  0  0
   28.6972  -14.1674    0.0000 N   0  0  0  0  0  0  0  0  0  0  0  0
   32.2711  -13.7225    0.0000 C   0  0  2  0  0  0  0  0  0  0  0  0
   32.9888  -14.1294    0.0000 C   0  0  0  0  0  0  0  0  0  0  0  0
   34.4148  -14.1159    0.0000 C   0  0  0  0  0  0  0  0  0  0  0  0
   27.9724  -12.9351    0.0000 O   0  0  0  0  0  0  0  0  0  0  0  0
   30.1326  -14.9814    0.0000 O   0  0  0  0  0  0  0  0  0  0  0  0
   32.2639  -12.8972    0.0000 C   0  0  0  0  0  0  0  0  0  0  0  0
   32.9960  -14.9547    0.0000 O   0  0  0  0  0  0  0  0  0  0  0  0
   34.4232  -14.9383    0.0000 C   0  0  0  0  0  0  0  0  0  0  0  0
   35.1368  -15.3396    0.0000 C   0  0  0  0  0  0  0  0  0  0  0  0
   35.8493  -14.9253    0.0000 C   0  0  0  0  0  0  0  0  0  0  0  0
   35.8411  -14.1029    0.0000 C   0  0  0  0  0  0  0  0  0  0  0  0
   35.1204  -13.6948    0.0000 C   0  0  0  0  0  0  0  0  0  0  0  0
   29.4005  -12.9237    0.0000 C   0  0  0  0  0  0  0  0  0  0  0  0
   30.1151  -12.5053    0.0000 C   0  0  0  0  0  0  0  0  0  0  0  0
   30.8329  -12.9125    0.0000 C   0  0  0  0  0  0  0  0  0  0  0  0
   31.5430  -12.4956    0.0000 C   0  0  0  0  0  0  0  0  0  0  0  0
   31.5363  -11.6677    0.0000 C   0  0  0  0  0  0  0  0  0  0  0  0
   30.8141  -11.2691    0.0000 C   0  0  0  0  0  0  0  0  0  0  0  0
   30.1036  -11.6821    0.0000 C   0  0  0  0  0  0  0  0  0  0  0  0
   25.1218  -13.7970    0.0000 O   0  0  0  0  0  0  0  0  0  0  0  0
   24.4113  -14.2155    0.0000 S   0  0  0  0  0  0  0  0  0  0  0  0
   23.6930  -13.8089    0.0000 C   0  0  0  0  0  0  0  0  0  0  0  0
   23.8208  -14.7979    0.0000 O   0  0  0  0  0  0  0  0  0  0  0  0
   24.9921  -14.7979    0.0000 O   0  0  0  0  0  0  0  0  0  0  0  0
   22.9817  -14.2278    0.0000 C   0  0  0  0  0  0  0  0  0  0  0  0
   22.2641  -13.8198    0.0000 C   0  0  0  0  0  0  0  0  0  0  0  0
   21.5534  -14.2379    0.0000 C   0  0  0  0  0  0  0  0  0  0  0  0
   21.5601  -15.0642    0.0000 C   0  0  0  0  0  0  0  0  0  0  0  0
   22.2834  -15.4705    0.0000 C   0  0  0  0  0  0  0  0  0  0  0  0
   22.9911  -15.0501    0.0000 C   0  0  0  0  0  0  0  0  0  0  0  0
   31.5599  -14.1406    0.0000 N   0  0  0  0  0  0  0  0  0  0  0  0
   33.6979  -13.7077    0.0000 N   0  0  0  0  0  0  0  0  0  0  0  0
 11  1  1  0  0  0  0
 12 13  1  0  0  0  0
 10 15  2  0  0  0  0
  2 16  1  1  0  0  0
 12 17  1  1  0  0  0
 13 18  2  0  0  0  0
 14 19  1  0  0  0  0
 14 23  1  0  0  0  0
 19 20  1  0  0  0  0
 20 21  1  0  0  0  0
 21 22  1  0  0  0  0
 22 23  1  0  0  0  0
  1 24  1  1  0  0  0
 24 25  1  0  0  0  0
 25 26  2  0  0  0  0
 26 27  1  0  0  0  0
 27 28  2  0  0  0  0
 28 29  1  0  0  0  0
 29 30  2  0  0  0  0
 30 25  1  0  0  0  0
  4 31  1  0  0  0  0
 31 32  1  0  0  0  0
 32 33  1  0  0  0  0
  1  2  1  0  0  0  0
 32 34  2  0  0  0  0
  2  3  1  0  0  0  0
 32 35  2  0  0  0  0
  4  5  2  0  0  0  0
 33 36  1  0  0  0  0
  5  6  1  0  0  0  0
 36 37  2  0  0  0  0
  6  7  2  0  0  0  0
 37 38  1  0  0  0  0
  7  8  1  0  0  0  0
 38 39  2  0  0  0  0
  8  9  2  0  0  0  0
 39 40  1  0  0  0  0
  9  4  1  0  0  0  0
 40 41  2  0  0  0  0
 41 36  1  0  0  0  0
  8 10  1  0  0  0  0
 10 11  1  0  0  0  0
  3 42  1  0  0  0  0
 42 12  1  0  0  0  0
 13 43  1  0  0  0  0
 43 14  1  0  0  0  0
M  END
>  <Mol Weight>
607.76

>  <Formula>
C33H41N3O6S

>  <chembl_id>
CHEMBL1210336

$$$$

  Mrv0541 06201412482D          

 44 48  0  0  0  0            999 V2000
    5.7667  -13.5917    0.0000 C   0  0  0  0  0  0  0  0  0  0  0  0
    5.7667  -14.4167    0.0000 C   0  0  1  0  0  0  0  0  0  0  0  0
    6.4787  -14.8250    0.0000 C   0  0  0  0  0  0  0  0  0  0  0  0
    6.4787  -13.1750    0.0000 C   0  0  0  0  0  0  0  0  0  0  0  0
    7.1907  -13.5917    0.0000 C   0  0  1  0  0  0  0  0  0  0  0  0
    7.1918  -14.4167    0.0000 C   0  0  1  0  0  0  0  0  0  0  0  0
    7.9028  -14.8260    0.0000 C   0  0  0  0  0  0  0  0  0  0  0  0
    8.6174  -14.4148    0.0000 C   0  0  0  0  0  0  0  0  0  0  0  0
    7.9007  -13.1760    0.0000 C   0  0  2  0  0  0  0  0  0  0  0  0
    8.6159  -13.5945    0.0000 C   0  0  2  0  0  0  0  0  0  0  0  0
    8.6238  -11.9401    0.0000 C   0  0  0  0  0  0  0  0  0  0  0  0
    7.9015  -12.3496    0.0000 C   0  0  0  0  0  0  0  0  0  0  0  0
    9.3391  -12.3586    0.0000 C   0  0  1  0  0  0  0  0  0  0  0  0
    9.3289  -13.1876    0.0000 C   0  0  1  0  0  0  0  0  0  0  0  0
   10.0378  -13.6085    0.0000 C   0  0  0  0  0  0  0  0  0  0  0  0
   10.7614  -13.2052    0.0000 C   0  0  0  0  0  0  0  0  0  0  0  0
   10.0582  -11.9505    0.0000 C   0  0  2  0  0  0  0  0  0  0  0  0
   10.7691  -12.3786    0.0000 C   0  0  2  0  0  0  0  0  0  0  0  0
   11.3959  -11.8347    0.0000 C   0  0  0  0  0  0  0  0  0  0  0  0
   11.0724  -11.0705    0.0000 C   0  0  0  0  0  0  0  0  0  0  0  0
   10.2456  -11.1409    0.0000 C   0  0  1  0  0  0  0  0  0  0  0  0
    9.5417  -10.7106    0.0000 C   0  0  0  0  0  0  0  0  0  0  0  0
    9.5624   -9.8859    0.0000 C   0  0  0  0  0  0  0  0  0  0  0  0
    8.8171  -11.1051    0.0000 C   0  0  0  0  0  0  0  0  0  0  0  0
   11.4792  -12.7875    0.0000 C   0  0  0  0  0  0  0  0  0  0  0  0
   11.4801  -13.6125    0.0000 N   0  0  0  0  0  0  0  0  0  0  0  0
   12.1932  -12.3742    0.0000 O   0  0  0  0  0  0  0  0  0  0  0  0
    9.3208  -14.0125    0.0000 C   0  0  0  0  0  0  0  0  0  0  0  0
    6.0583  -15.5375    0.0000 C   0  0  0  0  0  0  0  0  0  0  0  0
    6.8833  -15.5375    0.0000 C   0  0  0  0  0  0  0  0  0  0  0  0
    5.0528  -14.8302    0.0000 O   0  0  0  0  0  0  0  0  0  0  0  0
    7.1833  -12.7667    0.0000 C   0  0  0  0  0  0  0  0  0  0  0  0
    8.6083  -12.7667    0.0000 C   0  0  0  0  0  0  0  0  0  0  0  0
    7.8958  -14.0000    0.0000 H   0  0  0  0  0  0  0  0  0  0  0  0
    7.1875  -15.2375    0.0000 H   0  0  0  0  0  0  0  0  0  0  0  0
    9.3333  -11.5333    0.0000 H   0  0  0  0  0  0  0  0  0  0  0  0
   10.0500  -12.7750    0.0000 H   0  0  0  0  0  0  0  0  0  0  0  0
   12.1950  -14.0242    0.0000 C   0  0  0  0  0  0  0  0  0  0  0  0
   12.1959  -14.8492    0.0000 C   0  0  0  0  0  0  0  0  0  0  0  0
   12.9090  -13.6109    0.0000 C   0  0  0  0  0  0  0  0  0  0  0  0
   11.4819  -15.2625    0.0000 O   0  0  0  0  0  0  0  0  0  0  0  0
   12.9081  -12.7859    0.0000 O   0  0  0  0  0  0  0  0  0  0  0  0
   12.9042  -14.4333    0.0000 C   0  0  0  0  0  0  0  0  0  0  0  0
   12.9044  -15.2583    0.0000 O   0  0  0  0  0  0  0  0  0  0  0  0
 19 20  1  0  0  0  0
 20 21  1  0  0  0  0
 21 17  1  0  0  0  0
  5  4  1  0  0  0  0
 21 22  1  6  0  0  0
  5  6  1  0  0  0  0
 22 23  1  0  0  0  0
 22 24  2  0  0  0  0
  9 12  1  0  0  0  0
 18 25  1  1  0  0  0
 10 14  1  0  0  0  0
 25 26  1  0  0  0  0
 13 11  1  0  0  0  0
 25 27  2  0  0  0  0
 11 12  1  0  0  0  0
 14 28  1  6  0  0  0
 13 14  1  0  0  0  0
  3 29  1  0  0  0  0
  1  2  1  0  0  0  0
  3 30  1  0  0  0  0
  1  4  1  0  0  0  0
  2 31  1  1  0  0  0
  2  3  1  0  0  0  0
  5 32  1  1  0  0  0
  5  9  1  0  0  0  0
 10 33  1  1  0  0  0
 13 17  1  0  0  0  0
  9 34  1  6  0  0  0
 14 15  1  0  0  0  0
  6 35  1  6  0  0  0
 15 16  1  0  0  0  0
 13 36  1  1  0  0  0
 16 18  1  0  0  0  0
 17 37  1  6  0  0  0
 17 18  1  0  0  0  0
 26 38  1  0  0  0  0
  6  7  1  0  0  0  0
 38 39  1  0  0  0  0
  7  8  1  0  0  0  0
 38 40  1  0  0  0  0
  8 10  1  0  0  0  0
 39 41  1  0  0  0  0
  9 10  1  0  0  0  0
 40 42  1  0  0  0  0
  3  6  1  0  0  0  0
 38 43  1  0  0  0  0
 18 19  1  0  0  0  0
 43 44  1  0  0  0  0
M  END
>  <Mol Weight>
559.8201

>  <Formula>
C34H57NO5

>  <chembl_id>
CHEMBL1210111

$$$$

  Mrv0541 06201412482D          

 47 52  0  0  0  0            999 V2000
   14.3630   -4.8057    0.0000 C   0  0  1  0  0  0  0  0  0  0  0  0
   12.1835   -6.0458    0.0000 C   0  0  2  0  0  0  0  0  0  0  0  0
   14.3464   -5.6409    0.0000 C   0  0  2  0  0  0  0  0  0  0  0  0
   12.9059   -5.6283    0.0000 C   0  0  2  0  0  0  0  0  0  0  0  0
   13.6282   -6.0542    0.0000 C   0  0  1  0  0  0  0  0  0  0  0  0
   10.7430   -6.8809    0.0000 C   0  0  1  0  0  0  0  0  0  0  0  0
   12.1835   -6.8809    0.0000 C   0  0  2  0  0  0  0  0  0  0  0  0
   13.6240   -6.8809    0.0000 C   0  0  1  0  0  0  0  0  0  0  0  0
    9.3401   -7.6784    0.0000 C   0  0  1  0  0  0  0  0  0  0  0  0
   15.1606   -4.5636    0.0000 C   0  0  2  0  0  0  0  0  0  0  0  0
   10.0458   -6.4717    0.0000 O   0  0  0  0  0  0  0  0  0  0  0  0
   10.7472   -7.6826    0.0000 O   0  0  0  0  0  0  0  0  0  0  0  0
   10.0458   -8.0834    0.0000 O   0  0  0  0  0  0  0  0  0  0  0  0
    9.3485   -6.8725    0.0000 O   0  0  0  0  0  0  0  0  0  0  0  0
   13.6407   -4.3799    0.0000 C   0  0  0  0  0  0  0  0  0  0  0  0
   12.8975   -7.2943    0.0000 C   0  0  0  0  0  0  0  0  0  0  0  0
   12.9059   -4.7932    0.0000 C   0  0  0  0  0  0  0  0  0  0  0  0
   15.1396   -5.9122    0.0000 C   0  0  0  0  0  0  0  0  0  0  0  0
   14.3296   -7.2943    0.0000 O   0  0  0  0  0  0  0  0  0  0  0  0
   11.4654   -5.6241    0.0000 C   0  0  0  0  0  0  0  0  0  0  0  0
   11.4654   -7.2943    0.0000 C   0  0  0  0  0  0  0  0  0  0  0  0
   15.6406   -5.2484    0.0000 C   0  0  0  0  0  0  0  0  0  0  0  0
   14.3254   -8.1126    0.0000 C   0  0  0  0  0  0  0  0  0  0  0  0
   17.2482   -3.3402    0.0000 C   0  0  0  0  0  0  0  0  0  0  0  0
   10.7430   -6.0458    0.0000 C   0  0  0  0  0  0  0  0  0  0  0  0
   13.6157   -8.5176    0.0000 O   0  0  0  0  0  0  0  0  0  0  0  0
   17.2399   -2.5344    0.0000 O   0  0  0  0  0  0  0  0  0  0  0  0
   15.1563   -3.7578    0.0000 C   0  0  1  0  0  0  0  0  0  0  0  0
    9.3443   -8.4842    0.0000 C   0  0  0  0  0  0  0  0  0  0  0  0
    8.6429   -7.2733    0.0000 C   0  0  0  0  0  0  0  0  0  0  0  0
   15.8495   -3.3486    0.0000 C   0  0  0  0  0  0  0  0  0  0  0  0
   16.5550   -3.7452    0.0000 C   0  0  0  0  0  0  0  0  0  0  0  0
   14.3547   -4.0041    0.0000 C   0  0  0  0  0  0  0  0  0  0  0  0
   12.1794   -5.2400    0.0000 C   0  0  0  0  0  0  0  0  0  0  0  0
   17.9454   -3.7327    0.0000 O   0  0  0  0  0  0  0  0  0  0  0  0
    8.6429   -8.8851    0.0000 C   0  0  0  0  0  0  0  0  0  0  0  0
    7.9456   -7.6742    0.0000 C   0  0  0  0  0  0  0  0  0  0  0  0
    7.9414   -8.4800    0.0000 C   0  0  1  0  0  0  0  0  0  0  0  0
   15.0311   -8.5259    0.0000 C   0  0  0  0  0  0  0  0  0  0  0  0
   14.4549   -3.3569    0.0000 C   0  0  0  0  0  0  0  0  0  0  0  0
   17.9496   -4.5511    0.0000 C   0  0  0  0  0  0  0  0  0  0  0  0
    7.2400   -8.8851    0.0000 C   0  0  0  0  0  0  0  0  0  0  0  0
   12.1794   -7.6784    0.0000 H   0  0  0  0  0  0  0  0  0  0  0  0
   13.6157   -5.2441    0.0000 H   0  0  0  0  0  0  0  0  0  0  0  0
   15.8536   -4.1544    0.0000 H   0  0  0  0  0  0  0  0  0  0  0  0
   14.3422   -6.4425    0.0000 H   0  0  0  0  0  0  0  0  0  0  0  0
   12.9017   -6.4300    0.0000 H   0  0  0  0  0  0  0  0  0  0  0  0
  2  4  1  0  0  0  0
  3  1  1  0  0  0  0
  4  5  1  0  0  0  0
  5  3  1  0  0  0  0
  6 21  1  0  0  0  0
  7  2  1  0  0  0  0
  8  5  1  0  0  0  0
  9 13  1  1  0  0  0
 10  1  1  0  0  0  0
 11  6  1  0  0  0  0
  6 12  1  1  0  0  0
 13 12  1  0  0  0  0
 14 11  1  0  0  0  0
 15  1  1  0  0  0  0
 16  8  1  0  0  0  0
 17 15  1  0  0  0  0
 18  3  1  0  0  0  0
  8 19  1  6  0  0  0
 20  2  1  0  0  0  0
 21  7  1  0  0  0  0
 22 10  1  0  0  0  0
 23 19  1  0  0  0  0
 24 32  1  0  0  0  0
 25 20  1  0  0  0  0
 26 23  2  0  0  0  0
 27 24  2  0  0  0  0
 28 10  1  0  0  0  0
 29  9  1  0  0  0  0
 30  9  1  0  0  0  0
 31 28  1  0  0  0  0
 32 31  1  0  0  0  0
  1 33  1  1  0  0  0
  2 34  1  1  0  0  0
 35 24  1  0  0  0  0
 36 29  1  0  0  0  0
 37 30  1  0  0  0  0
 38 36  1  0  0  0  0
 39 23  1  0  0  0  0
 28 40  1  6  0  0  0
 41 35  1  0  0  0  0
 38 42  1  6  0  0  0
  7 43  1  1  0  0  0
  5 44  1  1  0  0  0
 10 45  1  6  0  0  0
  3 46  1  6  0  0  0
  4 47  1  6  0  0  0
 22 18  1  0  0  0  0
 17  4  1  0  0  0  0
 16  7  1  0  0  0  0
  6 25  1  0  0  0  0
  9 14  1  0  0  0  0
 38 37  1  0  0  0  0
M  END
>  <Mol Weight>
590.7878

>  <Formula>
C34H54O8

>  <chembl_id>
CHEMBL1213497

$$$$

  Mrv0541 06201412482D          

 48 53  0  0  0  0            999 V2000
    1.7783  -12.8104    0.0000 C   0  0  1  0  0  0  0  0  0  0  0  0
   -0.4165  -14.0598    0.0000 C   0  0  2  0  0  0  0  0  0  0  0  0
    1.7616  -13.6558    0.0000 C   0  0  2  0  0  0  0  0  0  0  0  0
    0.3123  -13.6391    0.0000 C   0  0  2  0  0  0  0  0  0  0  0  0
    1.0370  -14.0681    0.0000 C   0  0  1  0  0  0  0  0  0  0  0  0
   -1.8616  -14.9010    0.0000 C   0  0  1  0  0  0  0  0  0  0  0  0
   -0.4165  -14.9010    0.0000 C   0  0  2  0  0  0  0  0  0  0  0  0
    1.0328  -14.9010    0.0000 C   0  0  1  0  0  0  0  0  0  0  0  0
   -3.2776  -15.7006    0.0000 C   0  0  1  0  0  0  0  0  0  0  0  0
    2.5779  -12.5688    0.0000 C   0  0  2  0  0  0  0  0  0  0  0  0
   -2.5654  -14.4887    0.0000 O   0  0  0  0  0  0  0  0  0  0  0  0
   -1.8616  -15.7048    0.0000 O   0  0  0  0  0  0  0  0  0  0  0  0
   -2.5654  -16.1129    0.0000 O   0  0  0  0  0  0  0  0  0  0  0  0
   -3.2692  -14.8927    0.0000 O   0  0  0  0  0  0  0  0  0  0  0  0
    1.0495  -12.3856    0.0000 C   0  0  0  0  0  0  0  0  0  0  0  0
    0.3041  -15.3175    0.0000 C   0  0  0  0  0  0  0  0  0  0  0  0
    0.3165  -12.8020    0.0000 C   0  0  0  0  0  0  0  0  0  0  0  0
    2.5570  -13.9264    0.0000 C   0  0  0  0  0  0  0  0  0  0  0  0
    1.7449  -15.3175    0.0000 O   0  0  0  0  0  0  0  0  0  0  0  0
   -1.1369  -13.6350    0.0000 C   0  0  0  0  0  0  0  0  0  0  0  0
   -1.1369  -15.3133    0.0000 C   0  0  0  0  0  0  0  0  0  0  0  0
    3.0610  -13.2560    0.0000 C   0  0  0  0  0  0  0  0  0  0  0  0
    2.4571  -14.9094    0.0000 C   0  0  0  0  0  0  0  0  0  0  0  0
    4.6769  -11.3402    0.0000 C   0  0  0  0  0  0  0  0  0  0  0  0
   -1.8616  -14.0598    0.0000 C   0  0  0  0  0  0  0  0  0  0  0  0
    3.1692  -15.3217    0.0000 O   0  0  0  0  0  0  0  0  0  0  0  0
    4.6727  -10.5240    0.0000 O   0  0  0  0  0  0  0  0  0  0  0  0
    2.5737  -11.7567    0.0000 C   0  0  1  0  0  0  0  0  0  0  0  0
   -3.2692  -16.5127    0.0000 C   0  0  0  0  0  0  0  0  0  0  0  0
   -3.9772  -15.2967    0.0000 C   0  0  0  0  0  0  0  0  0  0  0  0
    3.2734  -11.3444    0.0000 C   0  0  0  0  0  0  0  0  0  0  0  0
    3.9813  -11.7484    0.0000 C   0  0  0  0  0  0  0  0  0  0  0  0
    1.7699  -12.0024    0.0000 C   0  0  0  0  0  0  0  0  0  0  0  0
   -0.4206  -13.2477    0.0000 C   0  0  0  0  0  0  0  0  0  0  0  0
    5.3807  -11.7359    0.0000 O   0  0  0  0  0  0  0  0  0  0  0  0
   -3.9772  -16.9167    0.0000 C   0  0  0  0  0  0  0  0  0  0  0  0
   -4.6769  -15.7006    0.0000 C   0  0  0  0  0  0  0  0  0  0  0  0
   -4.6852  -16.5086    0.0000 C   0  0  2  0  0  0  0  0  0  0  0  0
    2.4655  -14.0848    0.0000 C   0  0  0  0  0  0  0  0  0  0  0  0
    1.8699  -11.3569    0.0000 C   0  0  0  0  0  0  0  0  0  0  0  0
    5.3890  -12.5563    0.0000 C   0  0  0  0  0  0  0  0  0  0  0  0
   -5.3848  -16.9167    0.0000 C   0  0  0  0  0  0  0  0  0  0  0  0
   -6.0928  -16.5086    0.0000 C   0  0  0  0  0  0  0  0  0  0  0  0
    1.0245  -13.2560    0.0000 H   0  0  0  0  0  0  0  0  0  0  0  0
    3.2776  -12.1607    0.0000 H   0  0  0  0  0  0  0  0  0  0  0  0
    1.7533  -14.4596    0.0000 H   0  0  0  0  0  0  0  0  0  0  0  0
    0.3081  -14.4471    0.0000 H   0  0  0  0  0  0  0  0  0  0  0  0
   -0.4206  -15.7006    0.0000 H   0  0  0  0  0  0  0  0  0  0  0  0
  2  4  1  0  0  0  0
  3  1  1  0  0  0  0
  4  5  1  0  0  0  0
  5  3  1  0  0  0  0
  6 21  1  0  0  0  0
  7  2  1  0  0  0  0
  8  5  1  0  0  0  0
  9 14  1  0  0  0  0
 10  1  1  0  0  0  0
 11  6  1  0  0  0  0
  6 12  1  1  0  0  0
 13 12  1  0  0  0  0
 14 11  1  0  0  0  0
 15  1  1  0  0  0  0
 16  8  1  0  0  0  0
 17 15  1  0  0  0  0
 18  3  1  0  0  0  0
  8 19  1  6  0  0  0
 20  2  1  0  0  0  0
 21  7  1  0  0  0  0
 22 10  1  0  0  0  0
 23 19  1  0  0  0  0
 24 32  1  0  0  0  0
 25 20  1  0  0  0  0
 26 23  2  0  0  0  0
 27 24  2  0  0  0  0
 28 10  1  0  0  0  0
 29  9  1  0  0  0  0
 30  9  1  0  0  0  0
 31 28  1  0  0  0  0
 32 31  1  0  0  0  0
  1 33  1  1  0  0  0
  2 34  1  1  0  0  0
 35 24  1  0  0  0  0
 36 29  1  0  0  0  0
 37 30  1  0  0  0  0
 38 36  1  0  0  0  0
 39 23  1  0  0  0  0
 28 40  1  6  0  0  0
 41 35  1  0  0  0  0
 38 42  1  1  0  0  0
 43 42  1  0  0  0  0
  5 44  1  1  0  0  0
 10 45  1  6  0  0  0
  3 46  1  6  0  0  0
  4 47  1  6  0  0  0
  7 48  1  1  0  0  0
 22 18  1  0  0  0  0
 17  4  1  0  0  0  0
 16  7  1  0  0  0  0
  6 25  1  0  0  0  0
  9 13  1  1  0  0  0
 38 37  1  0  0  0  0
M  END
>  <Mol Weight>
604.8143

>  <Formula>
C35H56O8

>  <chembl_id>
CHEMBL1213498

$$$$

  Mrv0541 06201412482D          

 43 45  0  0  0  0            999 V2000
    6.0567  -19.4054    0.0000 N   0  0  0  0  0  0  0  0  0  0  0  0
    6.7697  -19.8158    0.0000 C   0  0  0  0  0  0  0  0  0  0  0  0
    4.1083  -20.0106    0.0000 N   0  0  0  0  0  0  0  0  0  0  0  0
    3.3870  -19.6044    0.0000 C   0  0  0  0  0  0  0  0  0  0  0  0
    7.4786  -19.4012    0.0000 C   0  0  0  0  0  0  0  0  0  0  0  0
    2.6781  -20.0148    0.0000 C   0  0  0  0  0  0  0  0  0  0  0  0
    5.6504  -20.1143    0.0000 C   0  0  0  0  0  0  0  0  0  0  0  0
    1.2478  -20.8481    0.0000 C   0  0  0  0  0  0  0  0  0  0  0  0
    8.9047  -18.5680    0.0000 C   0  0  0  0  0  0  0  0  0  0  0  0
    4.7384  -19.7909    0.0000 C   0  0  0  0  0  0  0  0  0  0  0  0
    1.9567  -21.2585    0.0000 C   0  0  0  0  0  0  0  0  0  0  0  0
    8.9088  -19.3930    0.0000 C   0  0  0  0  0  0  0  0  0  0  0  0
    1.2478  -20.0231    0.0000 C   0  0  0  0  0  0  0  0  0  0  0  0
    8.1833  -18.1617    0.0000 C   0  0  0  0  0  0  0  0  0  0  0  0
    5.3768  -19.6293    0.0000 C   0  0  0  0  0  0  0  0  0  0  0  0
    8.2000  -19.8116    0.0000 C   0  0  0  0  0  0  0  0  0  0  0  0
    7.4744  -18.5804    0.0000 C   0  0  0  0  0  0  0  0  0  0  0  0
    2.6781  -20.8481    0.0000 C   0  0  0  0  0  0  0  0  0  0  0  0
    1.9567  -19.6044    0.0000 C   0  0  0  0  0  0  0  0  0  0  0  0
    4.5145  -19.2935    0.0000 C   0  0  0  0  0  0  0  0  0  0  0  0
    5.6380  -22.3736    0.0000 C   0  0  0  0  0  0  0  0  0  0  0  0
    6.7697  -20.6449    0.0000 O   0  0  0  0  0  0  0  0  0  0  0  0
    3.3870  -18.7794    0.0000 O   0  0  0  0  0  0  0  0  0  0  0  0
    5.6463  -20.9434    0.0000 C   0  0  0  0  0  0  0  0  0  0  0  0
    5.2276  -21.6564    0.0000 O   0  0  0  0  0  0  0  0  0  0  0  0
    6.4588  -22.3778    0.0000 O   0  0  0  0  0  0  0  0  0  0  0  0
    5.2152  -23.0825    0.0000 C   0  0  0  0  0  0  0  0  0  0  0  0
    5.6256  -23.7956    0.0000 C   0  0  0  0  0  0  0  0  0  0  0  0
    0.5265  -21.2585    0.0000 O   0  0  0  0  0  0  0  0  0  0  0  0
    9.6177  -18.1493    0.0000 O   0  0  0  0  0  0  0  0  0  0  0  0
    0.5348  -19.6127    0.0000 O   0  0  0  0  0  0  0  0  0  0  0  0
    9.6260  -19.8034    0.0000 O   0  0  0  0  0  0  0  0  0  0  0  0
    1.9567  -22.0876    0.0000 O   0  0  0  0  0  0  0  0  0  0  0  0
    8.1751  -17.3367    0.0000 O   0  0  0  0  0  0  0  0  0  0  0  0
    5.2027  -24.5127    0.0000 C   0  0  0  0  0  0  0  0  0  0  0  0
    6.4464  -23.8038    0.0000 C   0  0  0  0  0  0  0  0  0  0  0  0
    6.0360  -24.5045    0.0000 C   0  0  0  0  0  0  0  0  0  0  0  0
   -0.1824  -20.8481    0.0000 C   0  0  0  0  0  0  0  0  0  0  0  0
   10.3266  -18.5597    0.0000 C   0  0  0  0  0  0  0  0  0  0  0  0
    0.5348  -18.7836    0.0000 C   0  0  0  0  0  0  0  0  0  0  0  0
    8.8840  -16.9181    0.0000 C   0  0  0  0  0  0  0  0  0  0  0  0
    9.6302  -20.6325    0.0000 C   0  0  0  0  0  0  0  0  0  0  0  0
    1.2478  -22.4980    0.0000 C   0  0  0  0  0  0  0  0  0  0  0  0
  2  1  1  0  0  0  0
  3 20  1  0  0  0  0
  4  3  1  0  0  0  0
  5  2  1  0  0  0  0
  6  4  1  0  0  0  0
  7  1  1  0  0  0  0
  8 13  2  0  0  0  0
  9 14  1  0  0  0  0
 10  7  1  0  0  0  0
 11 18  2  0  0  0  0
 12 16  1  0  0  0  0
 13 19  1  0  0  0  0
 14 17  2  0  0  0  0
 15  1  1  0  0  0  0
 16  5  2  0  0  0  0
 17  5  1  0  0  0  0
 18  6  1  0  0  0  0
 19  6  2  0  0  0  0
 20 15  1  0  0  0  0
 21 25  1  0  0  0  0
 22  2  2  0  0  0  0
 23  4  2  0  0  0  0
 24  7  1  0  0  0  0
 25 24  1  0  0  0  0
 26 21  2  0  0  0  0
 27 21  1  0  0  0  0
 28 27  1  0  0  0  0
 29  8  1  0  0  0  0
 30  9  1  0  0  0  0
 31 13  1  0  0  0  0
 32 12  1  0  0  0  0
 33 11  1  0  0  0  0
 34 14  1  0  0  0  0
 35 28  1  0  0  0  0
 36 28  1  0  0  0  0
 37 28  1  0  0  0  0
 38 29  1  0  0  0  0
 39 30  1  0  0  0  0
 40 31  1  0  0  0  0
 41 34  1  0  0  0  0
 42 32  1  0  0  0  0
 43 33  1  0  0  0  0
  3 10  1  0  0  0  0
 12  9  2  0  0  0  0
 11  8  1  0  0  0  0
M  END
>  <Mol Weight>
602.6726

>  <Formula>
C31H42N2O10

>  <chembl_id>
CHEMBL6232

$$$$

  Mrv0541 06201412482D          

 46 51  0  0  0  0            999 V2000
   -4.8125   -2.4125    0.0000 N   0  3  0  0  0  0  0  0  0  0  0  0
    3.1292   -2.4417    0.0000 N   0  3  0  0  0  0  0  0  0  0  0  0
   -5.5333   -2.0000    0.0000 C   0  0  0  0  0  0  0  0  0  0  0  0
    3.8500   -2.0250    0.0000 C   0  0  0  0  0  0  0  0  0  0  0  0
    3.8500   -1.2000    0.0000 C   0  0  0  0  0  0  0  0  0  0  0  0
   -5.5333   -1.1750    0.0000 C   0  0  0  0  0  0  0  0  0  0  0  0
    2.4167   -2.0292    0.0000 C   0  0  0  0  0  0  0  0  0  0  0  0
   -4.0958   -2.0000    0.0000 C   0  0  0  0  0  0  0  0  0  0  0  0
   -4.8125   -3.2375    0.0000 C   0  0  0  0  0  0  0  0  0  0  0  0
    3.1375   -3.2667    0.0000 C   0  0  0  0  0  0  0  0  0  0  0  0
    3.1292   -0.7875    0.0000 C   0  0  0  0  0  0  0  0  0  0  0  0
   -4.8125   -0.7542    0.0000 C   0  0  0  0  0  0  0  0  0  0  0  0
   -4.0958   -1.1667    0.0000 C   0  0  0  0  0  0  0  0  0  0  0  0
    2.4167   -1.2000    0.0000 C   0  0  0  0  0  0  0  0  0  0  0  0
   -4.8208    0.0708    0.0000 N   0  0  0  0  0  0  0  0  0  0  0  0
    3.1542    0.0875    0.0000 N   0  0  0  0  0  0  0  0  0  0  0  0
   -4.0958   -3.6500    0.0000 C   0  0  0  0  0  0  0  0  0  0  0  0
    2.4250   -3.6792    0.0000 C   0  0  0  0  0  0  0  0  0  0  0  0
   -6.2417   -0.7667    0.0000 C   0  0  0  0  0  0  0  0  0  0  0  0
    4.5542   -0.7792    0.0000 C   0  0  0  0  0  0  0  0  0  0  0  0
    4.5667   -2.4375    0.0000 C   0  0  0  0  0  0  0  0  0  0  0  0
   -6.2292   -2.4167    0.0000 C   0  0  0  0  0  0  0  0  0  0  0  0
   -4.1000    0.4833    0.0000 C   0  0  0  0  0  0  0  0  0  0  0  0
    2.3292    0.0875    0.0000 C   0  0  0  0  0  0  0  0  0  0  0  0
   -4.0958   -4.4750    0.0000 C   0  0  0  0  0  0  0  0  0  0  0  0
   -3.3833   -3.2375    0.0000 C   0  0  0  0  0  0  0  0  0  0  0  0
    1.7042   -3.2667    0.0000 C   0  0  0  0  0  0  0  0  0  0  0  0
    2.4292   -4.5000    0.0000 C   0  0  0  0  0  0  0  0  0  0  0  0
    1.6125    0.4958    0.0000 C   0  0  0  0  0  0  0  0  0  0  0  0
   -3.3875    0.0708    0.0000 C   0  0  0  0  0  0  0  0  0  0  0  0
   -2.6708    0.4833    0.0000 C   0  0  0  0  0  0  0  0  0  0  0  0
   -1.9583    0.0750    0.0000 C   0  0  0  0  0  0  0  0  0  0  0  0
   -1.2458    0.4875    0.0000 C   0  0  0  0  0  0  0  0  0  0  0  0
   -0.5333    0.0833    0.0000 C   0  0  0  0  0  0  0  0  0  0  0  0
    0.1792    0.4958    0.0000 C   0  0  0  0  0  0  0  0  0  0  0  0
    0.9000    0.0833    0.0000 C   0  0  0  0  0  0  0  0  0  0  0  0
    5.2750   -1.1917    0.0000 C   0  0  0  0  0  0  0  0  0  0  0  0
   -6.9542   -1.1792    0.0000 C   0  0  0  0  0  0  0  0  0  0  0  0
   -6.9500   -2.0042    0.0000 C   0  0  0  0  0  0  0  0  0  0  0  0
    5.2792   -2.0167    0.0000 C   0  0  0  0  0  0  0  0  0  0  0  0
   -2.6708   -3.6417    0.0000 C   0  0  0  0  0  0  0  0  0  0  0  0
    0.9917   -3.6792    0.0000 C   0  0  0  0  0  0  0  0  0  0  0  0
    1.7167   -4.9167    0.0000 C   0  0  0  0  0  0  0  0  0  0  0  0
   -3.3833   -4.8875    0.0000 C   0  0  0  0  0  0  0  0  0  0  0  0
   -2.6708   -4.4750    0.0000 C   0  0  0  0  0  0  0  0  0  0  0  0
    0.9917   -4.5042    0.0000 C   0  0  0  0  0  0  0  0  0  0  0  0
  2  7  1  0  0  0  0
  3  1  1  0  0  0  0
  4  5  1  0  0  0  0
  5 11  2  0  0  0  0
  6  3  1  0  0  0  0
  7 14  2  0  0  0  0
  8  1  2  0  0  0  0
  9  1  1  0  0  0  0
 10  2  1  0  0  0  0
 11 16  1  0  0  0  0
 12 13  2  0  0  0  0
 13  8  1  0  0  0  0
 14 11  1  0  0  0  0
 15 12  1  0  0  0  0
 16 24  1  0  0  0  0
 17  9  1  0  0  0  0
 18 10  1  0  0  0  0
 19  6  2  0  0  0  0
 20  5  1  0  0  0  0
 21  4  1  0  0  0  0
 22  3  2  0  0  0  0
 23 15  1  0  0  0  0
 24 29  1  0  0  0  0
 25 17  2  0  0  0  0
 26 17  1  0  0  0  0
 27 18  2  0  0  0  0
 28 18  1  0  0  0  0
 29 36  1  0  0  0  0
 30 23  1  0  0  0  0
 31 30  1  0  0  0  0
 32 31  1  0  0  0  0
 33 32  1  0  0  0  0
 34 33  1  0  0  0  0
 35 34  1  0  0  0  0
 36 35  1  0  0  0  0
 37 20  2  0  0  0  0
 38 39  2  0  0  0  0
 39 22  1  0  0  0  0
 40 37  1  0  0  0  0
 41 26  2  0  0  0  0
 42 27  1  0  0  0  0
 43 28  2  0  0  0  0
 44 25  1  0  0  0  0
 45 41  1  0  0  0  0
 46 43  1  0  0  0  0
  6 12  1  0  0  0  0
 38 19  1  0  0  0  0
 45 44  2  0  0  0  0
  4  2  2  0  0  0  0
 40 21  2  0  0  0  0
 46 42  2  0  0  0  0
M  CHG  2   1   1   2   1
M  END
>  <Mol Weight>
608.8562

>  <Formula>
C42H48N4

>  <chembl_id>
CHEMBL6212

$$$$

  Mrv0541 06201412482D          

 42 44  0  0  1  0            999 V2000
    8.1167   -9.7000    0.0000 C   0  0  0  0  0  0  0  0  0  0  0  0
    6.6875   -9.7000    0.0000 N   0  0  0  0  0  0  0  0  0  0  0  0
    5.9667  -10.1125    0.0000 C   0  0  0  0  0  0  0  0  0  0  0  0
    7.4000  -10.1125    0.0000 C   0  0  1  0  0  0  0  0  0  0  0  0
    8.8292  -10.1125    0.0000 N   0  0  0  0  0  0  0  0  0  0  0  0
    3.8292   -8.8750    0.0000 C   0  0  0  0  0  0  0  0  0  0  0  0
    5.2542   -9.7000    0.0000 C   0  0  1  0  0  0  0  0  0  0  0  0
    4.5417  -10.1125    0.0000 C   0  0  0  0  0  0  0  0  0  0  0  0
    7.4000  -10.9375    0.0000 C   0  0  0  0  0  0  0  0  0  0  0  0
    3.8292   -9.7000    0.0000 C   0  0  2  0  0  0  0  0  0  0  0  0
    8.1167   -8.8750    0.0000 O   0  0  0  0  0  0  0  0  0  0  0  0
    5.9667  -10.9375    0.0000 O   0  0  0  0  0  0  0  0  0  0  0  0
    3.1167   -8.4542    0.0000 O   0  0  0  0  0  0  0  0  0  0  0  0
    5.2542   -8.8750    0.0000 C   0  0  0  0  0  0  0  0  0  0  0  0
    9.5417   -9.7000    0.0000 C   0  0  0  0  0  0  0  0  0  0  0  0
    4.5417   -8.4542    0.0000 O   0  0  0  0  0  0  0  0  0  0  0  0
    5.9750   -5.9875    0.0000 C   0  0  0  0  0  0  0  0  0  0  0  0
    5.9667   -5.1625    0.0000 C   0  0  0  0  0  0  0  0  0  0  0  0
    5.9667   -7.6375    0.0000 C   0  0  0  0  0  0  0  0  0  0  0  0
    5.9667   -8.4625    0.0000 C   0  0  0  0  0  0  0  0  0  0  0  0
    5.2542   -6.4042    0.0000 C   0  0  0  0  0  0  0  0  0  0  0  0
    6.6875   -6.4000    0.0000 C   0  0  0  0  0  0  0  0  0  0  0  0
    5.2625   -7.2250    0.0000 C   0  0  0  0  0  0  0  0  0  0  0  0
    6.6875   -7.2250    0.0000 C   0  0  0  0  0  0  0  0  0  0  0  0
    6.6875   -4.7500    0.0000 C   0  0  0  0  0  0  0  0  0  0  0  0
    7.3917  -11.7542    0.0000 C   0  0  0  0  0  0  0  0  0  0  0  0
    6.6875  -11.3500    0.0000 C   0  0  0  0  0  0  0  0  0  0  0  0
    8.1167  -11.3500    0.0000 C   0  0  0  0  0  0  0  0  0  0  0  0
    3.1125  -10.1125    0.0000 C   0  0  0  0  0  0  0  0  0  0  0  0
   10.2542  -10.1125    0.0000 C   0  0  0  0  0  0  0  0  0  0  0  0
    9.5417   -8.8792    0.0000 C   0  0  0  0  0  0  0  0  0  0  0  0
    7.4000   -5.1625    0.0000 C   0  0  0  0  0  0  0  0  0  0  0  0
    6.6792   -3.9292    0.0000 C   0  0  0  0  0  0  0  0  0  0  0  0
    2.4000   -9.7000    0.0000 C   0  0  0  0  0  0  0  0  0  0  0  0
    1.6875  -10.1125    0.0000 C   0  0  0  0  0  0  0  0  0  0  0  0
    0.9667   -9.7000    0.0000 C   0  0  0  0  0  0  0  0  0  0  0  0
    7.3917   -3.5125    0.0000 C   0  0  0  0  0  0  0  0  0  0  0  0
   10.9667   -9.7042    0.0000 C   0  0  0  0  0  0  0  0  0  0  0  0
   10.2542   -8.4625    0.0000 C   0  0  0  0  0  0  0  0  0  0  0  0
    8.1125   -4.7500    0.0000 C   0  0  0  0  0  0  0  0  0  0  0  0
    8.1125   -3.9250    0.0000 C   0  0  0  0  0  0  0  0  0  0  0  0
   10.9667   -8.8750    0.0000 C   0  0  0  0  0  0  0  0  0  0  0  0
  2  4  1  0  0  0  0
  3  2  1  0  0  0  0
  4  1  1  0  0  0  0
  5  1  1  0  0  0  0
 10  6  1  6  0  0  0
  7  3  1  0  0  0  0
  8  7  1  0  0  0  0
  4  9  1  6  0  0  0
 10  8  1  0  0  0  0
 11  1  2  0  0  0  0
 12  3  2  0  0  0  0
 13  6  2  0  0  0  0
  7 14  1  1  0  0  0
 15  5  1  0  0  0  0
 16  6  1  0  0  0  0
 17 22  2  0  0  0  0
 18 17  1  0  0  0  0
 19 20  1  0  0  0  0
 20 14  1  0  0  0  0
 21 23  2  0  0  0  0
 22 24  1  0  0  0  0
 23 19  1  0  0  0  0
 24 19  2  0  0  0  0
 25 18  1  0  0  0  0
 26  9  1  0  0  0  0
 27  9  1  0  0  0  0
 28  9  1  0  0  0  0
 29 10  1  0  0  0  0
 30 15  2  0  0  0  0
 31 15  1  0  0  0  0
 32 25  2  0  0  0  0
 33 25  1  0  0  0  0
 34 29  1  0  0  0  0
 35 34  1  0  0  0  0
 36 35  1  0  0  0  0
 37 33  2  0  0  0  0
 38 30  1  0  0  0  0
 39 31  2  0  0  0  0
 40 32  1  0  0  0  0
 41 37  1  0  0  0  0
 42 39  1  0  0  0  0
 42 38  2  0  0  0  0
 21 17  1  0  0  0  0
 41 40  2  0  0  0  0
M  END
>  <Mol Weight>
570.7614

>  <Formula>
C36H46N2O4

>  <chembl_id>
CHEMBL6216

$$$$

  Mrv0541 06201412482D          

 33 35  0  0  0  0            999 V2000
    3.3124   -3.7390    0.0000 C   0  0  0  0  0  0  0  0  0  0  0  0
    2.6223   -3.2999    0.0000 C   0  0  0  0  0  0  0  0  0  0  0  0
    4.0402   -3.3543    0.0000 C   0  0  0  0  0  0  0  0  0  0  0  0
    3.2790   -4.5671    0.0000 C   0  0  0  0  0  0  0  0  0  0  0  0
    2.6474   -2.4634    0.0000 C   0  0  0  0  0  0  0  0  0  0  0  0
    4.0695   -2.5387    0.0000 C   0  0  0  0  0  0  0  0  0  0  0  0
    4.7428   -3.7934    0.0000 C   0  0  0  0  0  0  0  0  0  0  0  0
    2.5471   -4.9478    0.0000 C   0  0  0  0  0  0  0  0  0  0  0  0
    3.9774   -5.0063    0.0000 C   0  0  0  0  0  0  0  0  0  0  0  0
    3.2163   -6.2150    0.0000 C   0  0  0  0  0  0  0  0  0  0  0  0
   11.1962   -2.7227    0.0000 N   0  0  0  0  0  0  0  0  0  0  0  0
    5.4998   -2.5889    0.0000 C   0  0  0  0  0  0  0  0  0  0  0  0
    2.5136   -5.7717    0.0000 C   0  0  0  0  0  0  0  0  0  0  0  0
    3.9440   -5.8344    0.0000 C   0  0  0  0  0  0  0  0  0  0  0  0
    5.4747   -3.4128    0.0000 C   0  0  0  0  0  0  0  0  0  0  0  0
    4.8098   -2.1498    0.0000 C   0  0  0  0  0  0  0  0  0  0  0  0
    3.1912   -7.0515    0.0000 I   0  0  0  0  0  0  0  0  0  0  0  0
    1.8821   -3.6805    0.0000 C   0  0  0  0  0  0  0  0  0  0  0  0
    6.2276   -2.2083    0.0000 O   0  0  0  0  0  0  0  0  0  0  0  0
    1.9448   -2.0118    0.0000 C   0  0  0  0  0  0  0  0  0  0  0  0
    3.3794   -2.0870    0.0000 C   0  0  0  0  0  0  0  0  0  0  0  0
   10.4936   -2.3003    0.0000 C   0  0  0  0  0  0  0  0  0  0  0  0
   11.1920   -3.5508    0.0000 C   0  0  0  0  0  0  0  0  0  0  0  0
   11.9197   -2.3129    0.0000 C   0  0  0  0  0  0  0  0  0  0  0  0
    6.9177   -2.6391    0.0000 C   0  0  0  0  0  0  0  0  0  0  0  0
    1.8486   -4.4961    0.0000 C   0  0  0  0  0  0  0  0  0  0  0  0
    9.7742   -2.7102    0.0000 C   0  0  0  0  0  0  0  0  0  0  0  0
    7.6537   -2.2459    0.0000 C   0  0  0  0  0  0  0  0  0  0  0  0
    9.0758   -2.2836    0.0000 C   0  0  0  0  0  0  0  0  0  0  0  0
    8.3480   -2.6767    0.0000 C   0  0  0  0  0  0  0  0  0  0  0  0
    3.4170   -1.2589    0.0000 C   0  0  0  0  0  0  0  0  0  0  0  0
    1.9824   -1.1962    0.0000 C   0  0  0  0  0  0  0  0  0  0  0  0
    2.7144   -0.8156    0.0000 C   0  0  0  0  0  0  0  0  0  0  0  0
  2  1  2  0  0  0  0
  3  1  1  0  0  0  0
  4  1  1  0  0  0  0
  5  2  1  0  0  0  0
  6  3  1  0  0  0  0
  7  3  2  0  0  0  0
  8  4  2  0  0  0  0
  9  4  1  0  0  0  0
 10 14  1  0  0  0  0
 11 22  1  0  0  0  0
 12 15  2  0  0  0  0
 13  8  1  0  0  0  0
 14  9  2  0  0  0  0
 15  7  1  0  0  0  0
 16  6  2  0  0  0  0
 17 10  1  0  0  0  0
 18  2  1  0  0  0  0
 19 12  1  0  0  0  0
 20  5  2  0  0  0  0
 21  5  1  0  0  0  0
 22 27  1  0  0  0  0
 23 11  1  0  0  0  0
 24 11  1  0  0  0  0
 25 19  1  0  0  0  0
 26 18  1  0  0  0  0
 27 29  1  0  0  0  0
 28 25  1  0  0  0  0
 29 30  1  0  0  0  0
 30 28  1  0  0  0  0
 31 21  2  0  0  0  0
 32 20  1  0  0  0  0
 33 31  1  0  0  0  0
 10 13  2  0  0  0  0
 12 16  1  0  0  0  0
 33 32  2  0  0  0  0
M  END
>  <Mol Weight>
553.5174

>  <Formula>
C30H36INO

>  <chembl_id>
CHEMBL6617

$$$$

  Mrv0541 06201412482D          

 24 25  0  0  0  0            999 V2000
    3.8375   -2.4667    0.0000 C   0  0  0  0  0  0  0  0  0  0  0  0
    5.9792   -2.0500    0.0000 C   0  0  0  0  0  0  0  0  0  0  0  0
    2.4042   -3.3000    0.0000 C   0  0  0  0  0  0  0  0  0  0  0  0
    7.4042   -1.2167    0.0000 C   0  0  0  0  0  0  0  0  0  0  0  0
    3.1167   -3.7125    0.0000 C   0  0  0  0  0  0  0  0  0  0  0  0
    7.4042   -2.0417    0.0000 C   0  0  0  0  0  0  0  0  0  0  0  0
    2.4042   -2.4750    0.0000 C   0  0  0  0  0  0  0  0  0  0  0  0
    6.6792   -0.8125    0.0000 C   0  0  0  0  0  0  0  0  0  0  0  0
    4.5500   -2.0542    0.0000 C   0  0  0  0  0  0  0  0  0  0  0  0
    5.2667   -2.4625    0.0000 C   0  0  0  0  0  0  0  0  0  0  0  0
    3.1167   -2.0542    0.0000 C   0  0  0  0  0  0  0  0  0  0  0  0
    3.8375   -3.3000    0.0000 C   0  0  0  0  0  0  0  0  0  0  0  0
    6.6917   -2.4625    0.0000 C   0  0  0  0  0  0  0  0  0  0  0  0
    5.9667   -1.2292    0.0000 C   0  0  0  0  0  0  0  0  0  0  0  0
    1.6917   -2.0625    0.0000 Br  0  0  0  0  0  0  0  0  0  0  0  0
    3.1167   -4.5375    0.0000 Br  0  0  0  0  0  0  0  0  0  0  0  0
    6.6750    0.0125    0.0000 Br  0  0  0  0  0  0  0  0  0  0  0  0
    8.1167   -2.4542    0.0000 Br  0  0  0  0  0  0  0  0  0  0  0  0
    8.1125   -0.8042    0.0000 O   0  0  0  0  0  0  0  0  0  0  0  0
    1.6917   -3.7042    0.0000 O   0  0  0  0  0  0  0  0  0  0  0  0
    4.5417   -1.2292    0.0000 C   0  0  0  0  0  0  0  0  0  0  0  0
    5.2667   -3.2875    0.0000 C   0  0  0  0  0  0  0  0  0  0  0  0
    3.8292   -0.8167    0.0000 C   0  0  0  0  0  0  0  0  0  0  0  0
    5.9792   -3.7000    0.0000 C   0  0  0  0  0  0  0  0  0  0  0  0
  2 10  1  0  0  0  0
  3  5  1  0  0  0  0
  4  8  1  0  0  0  0
  5 12  2  0  0  0  0
  6 13  1  0  0  0  0
  7 11  1  0  0  0  0
  8 14  2  0  0  0  0
  9  1  1  0  0  0  0
 10  9  1  0  0  0  0
 11  1  2  0  0  0  0
 12  1  1  0  0  0  0
 13  2  2  0  0  0  0
 14  2  1  0  0  0  0
 15  7  1  0  0  0  0
 16  5  1  0  0  0  0
 17  8  1  0  0  0  0
 18  6  1  0  0  0  0
 19  4  1  0  0  0  0
 20  3  1  0  0  0  0
 21  9  1  0  0  0  0
 22 10  1  0  0  0  0
 23 21  1  0  0  0  0
 24 22  1  0  0  0  0
  7  3  2  0  0  0  0
  6  4  2  0  0  0  0
M  END
>  <Mol Weight>
585.95

>  <Formula>
C18H18Br4O2

>  <chembl_id>
CHEMBL6490

$$$$

  Mrv0541 06201412482D          

 43 45  0  0  0  0            999 V2000
   -6.5903   -2.4293    0.0000 C   0  0  0  0  0  0  0  0  0  0  0  0
   -8.0103   -2.0488    0.0000 N   0  0  0  0  0  0  0  0  0  0  0  0
   -7.2034   -1.8773    0.0000 C   0  0  0  0  0  0  0  0  0  0  0  0
   -7.1171   -1.0568    0.0000 N   0  0  0  0  0  0  0  0  0  0  0  0
   -7.8708   -0.7213    0.0000 C   0  0  0  0  0  0  0  0  0  0  0  0
   -8.4228   -1.3344    0.0000 C   0  0  0  0  0  0  0  0  0  0  0  0
   -6.4027   -0.6443    0.0000 C   0  0  0  0  0  0  0  0  0  0  0  0
   -5.6882   -1.0568    0.0000 C   0  0  0  0  0  0  0  0  0  0  0  0
   -4.9737   -0.6443    0.0000 C   0  0  0  0  0  0  0  0  0  0  0  0
   -4.2592   -1.0568    0.0000 C   0  0  0  0  0  0  0  0  0  0  0  0
   -3.5448   -0.6443    0.0000 C   0  0  0  0  0  0  0  0  0  0  0  0
   -2.8303   -1.0568    0.0000 C   0  0  0  0  0  0  0  0  0  0  0  0
   -2.1158   -0.6443    0.0000 C   0  0  0  0  0  0  0  0  0  0  0  0
   -2.1158    0.1807    0.0000 C   0  0  0  0  0  0  0  0  0  0  0  0
   -2.8303    0.5932    0.0000 C   0  0  0  0  0  0  0  0  0  0  0  0
   -3.5448    0.1807    0.0000 C   0  0  0  0  0  0  0  0  0  0  0  0
   -1.4014    0.5932    0.0000 C   0  0  0  0  0  0  0  0  0  0  0  0
   -0.6869    0.1807    0.0000 C   0  0  0  0  0  0  0  0  0  0  0  0
   -0.6869   -0.6443    0.0000 O   0  0  0  0  0  0  0  0  0  0  0  0
    0.0276    0.5932    0.0000 N   0  0  0  0  0  0  0  0  0  0  0  0
    0.7420    0.1807    0.0000 C   0  0  2  0  0  0  0  0  0  0  0  0
    1.4565    0.5932    0.0000 C   0  0  0  0  0  0  0  0  0  0  0  0
    1.4565    1.4182    0.0000 O   0  0  0  0  0  0  0  0  0  0  0  0
    0.7420   -0.6443    0.0000 C   0  0  0  0  0  0  0  0  0  0  0  0
    1.4565   -1.0568    0.0000 O   0  0  0  0  0  0  0  0  0  0  0  0
    2.1710    0.1807    0.0000 N   0  0  0  0  0  0  0  0  0  0  0  0
    2.8855    0.5932    0.0000 C   0  0  2  0  0  0  0  0  0  0  0  0
    3.5999    0.1807    0.0000 C   0  0  0  0  0  0  0  0  0  0  0  0
    3.5999   -0.6443    0.0000 O   0  0  0  0  0  0  0  0  0  0  0  0
    2.8855    1.4182    0.0000 C   0  0  0  0  0  0  0  0  0  0  0  0
    2.1710    1.8307    0.0000 C   0  0  0  0  0  0  0  0  0  0  0  0
    2.1710    2.6557    0.0000 C   0  0  0  0  0  0  0  0  0  0  0  0
    1.4565    3.0682    0.0000 C   0  0  0  0  0  0  0  0  0  0  0  0
    1.4565    3.8932    0.0000 N   0  0  0  0  0  0  0  0  0  0  0  0
    4.3144    0.5932    0.0000 N   0  0  0  0  0  0  0  0  0  0  0  0
    5.0289    0.1807    0.0000 C   0  0  0  0  0  0  0  0  0  0  0  0
    5.7433    0.5932    0.0000 C   0  0  0  0  0  0  0  0  0  0  0  0
    6.4578    0.1807    0.0000 C   0  0  0  0  0  0  0  0  0  0  0  0
    7.1723    0.5932    0.0000 C   0  0  0  0  0  0  0  0  0  0  0  0
    7.8868    0.1807    0.0000 C   0  0  0  0  0  0  0  0  0  0  0  0
    7.8868   -0.6443    0.0000 C   0  0  0  0  0  0  0  0  0  0  0  0
    7.1723   -1.0568    0.0000 C   0  0  0  0  0  0  0  0  0  0  0  0
    6.4578   -0.6443    0.0000 C   0  0  0  0  0  0  0  0  0  0  0  0
  3  1  1  0  0  0  0
  3  2  2  0  0  0  0
  6  2  1  0  0  0  0
  3  4  1  0  0  0  0
  5  4  1  0  0  0  0
  7  4  1  0  0  0  0
  6  5  2  0  0  0  0
  8  7  1  0  0  0  0
  9  8  1  0  0  0  0
 10  9  1  0  0  0  0
 11 10  1  0  0  0  0
 12 11  2  0  0  0  0
 11 16  1  0  0  0  0
 13 12  1  0  0  0  0
 14 13  2  0  0  0  0
 14 15  1  0  0  0  0
 14 17  1  0  0  0  0
 16 15  2  0  0  0  0
 17 18  1  0  0  0  0
 18 19  2  0  0  0  0
 18 20  1  0  0  0  0
 21 20  1  6  0  0  0
 21 22  1  0  0  0  0
 21 24  1  0  0  0  0
 22 23  2  0  0  0  0
 22 26  1  0  0  0  0
 24 25  1  0  0  0  0
 27 26  1  1  0  0  0
 27 28  1  0  0  0  0
 27 30  1  0  0  0  0
 28 29  2  0  0  0  0
 28 35  1  0  0  0  0
 30 31  1  0  0  0  0
 32 31  1  0  0  0  0
 32 33  1  0  0  0  0
 33 34  1  0  0  0  0
 36 35  1  0  0  0  0
 36 37  1  0  0  0  0
 37 38  1  0  0  0  0
 38 39  1  0  0  0  0
 43 38  1  0  0  0  0
 40 39  1  0  0  0  0
 40 41  1  0  0  0  0
 42 41  1  0  0  0  0
 43 42  1  0  0  0  0
M  END
>  <Mol Weight>
596.8038

>  <Formula>
C33H52N6O4

>  <chembl_id>
CHEMBL6269

$$$$

  Mrv0541 06201412482D          

 41 44  0  0  1  0            999 V2000
    1.4178   -4.5703    0.0000 C   0  0  0  0  0  0  0  0  0  0  0  0
    0.7173   -4.1575    0.0000 C   0  0  0  0  0  0  0  0  0  0  0  0
    1.4178   -5.3960    0.0000 C   0  0  0  0  0  0  0  0  0  0  0  0
   -0.0083   -4.5661    0.0000 N   0  0  0  0  0  0  0  0  0  0  0  0
    0.7048   -5.8046    0.0000 N   0  0  0  0  0  0  0  0  0  0  0  0
    9.9621   -0.4170    0.0000 N   0  3  0  0  0  0  0  0  0  0  0  0
    7.1223   -2.8940    0.0000 C   0  0  0  0  0  0  0  0  0  0  0  0
    6.4093   -3.3151    0.0000 C   0  0  0  0  0  0  0  0  0  0  0  0
    7.8354   -3.3068    0.0000 N   0  0  0  0  0  0  0  0  0  0  0  0
   -0.0083   -5.3834    0.0000 C   0  0  0  0  0  0  0  0  0  0  0  0
    2.1309   -4.1533    0.0000 C   0  0  0  0  0  0  0  0  0  0  0  0
    8.5484   -2.8940    0.0000 C   0  0  1  0  0  0  0  0  0  0  0  0
    5.6920   -2.9065    0.0000 C   0  0  0  0  0  0  0  0  0  0  0  0
    2.8397   -4.5661    0.0000 C   0  0  0  0  0  0  0  0  0  0  0  0
    4.9789   -3.3193    0.0000 C   0  0  0  0  0  0  0  0  0  0  0  0
    9.2490   -0.8299    0.0000 C   0  0  0  0  0  0  0  0  0  0  0  0
    9.2698   -3.2943    0.0000 C   0  0  0  0  0  0  0  0  0  0  0  0
    8.5442   -2.0683    0.0000 C   0  0  0  0  0  0  0  0  0  0  0  0
    4.9831   -4.1450    0.0000 C   0  0  0  0  0  0  0  0  0  0  0  0
    4.2701   -4.5578    0.0000 N   0  0  0  0  0  0  0  0  0  0  0  0
    2.1309   -5.8088    0.0000 C   0  0  0  0  0  0  0  0  0  0  0  0
    3.5528   -4.1450    0.0000 C   0  0  0  0  0  0  0  0  0  0  0  0
    6.4093   -4.1325    0.0000 C   0  0  0  0  0  0  0  0  0  0  0  0
    2.8397   -5.3960    0.0000 C   0  0  0  0  0  0  0  0  0  0  0  0
    9.2573   -1.6555    0.0000 C   0  0  0  0  0  0  0  0  0  0  0  0
    4.9664   -5.8213    0.0000 C   0  0  0  0  0  0  0  0  0  0  0  0
    5.6712   -6.2716    0.0000 C   0  0  0  0  0  0  0  0  0  0  0  0
   10.6834   -0.8257    0.0000 O   0  5  0  0  0  0  0  0  0  0  0  0
    9.9578    0.4086    0.0000 O   0  0  0  0  0  0  0  0  0  0  0  0
    0.7173   -3.3318    0.0000 O   0  0  0  0  0  0  0  0  0  0  0  0
    7.1181   -2.0683    0.0000 O   0  0  0  0  0  0  0  0  0  0  0  0
    5.6962   -4.5578    0.0000 C   0  0  0  0  0  0  0  0  0  0  0  0
    9.9829   -2.8815    0.0000 O   0  0  0  0  0  0  0  0  0  0  0  0
    5.6795   -2.0808    0.0000 F   0  0  0  0  0  0  0  0  0  0  0  0
    4.2701   -5.3834    0.0000 C   0  0  0  0  0  0  0  0  0  0  0  0
    9.2740   -4.1199    0.0000 O   0  0  0  0  0  0  0  0  0  0  0  0
   -0.7214   -5.7963    0.0000 C   0  0  0  0  0  0  0  0  0  0  0  0
    7.8312   -1.6680    0.0000 C   0  0  0  0  0  0  0  0  0  0  0  0
    8.5359   -0.4295    0.0000 C   0  0  0  0  0  0  0  0  0  0  0  0
    7.8229   -0.8507    0.0000 C   0  0  0  0  0  0  0  0  0  0  0  0
    3.5570   -5.8088    0.0000 C   0  0  0  0  0  0  0  0  0  0  0  0
  2  1  1  0  0  0  0
  3  1  2  0  0  0  0
  4  2  2  0  0  0  0
  5  3  1  0  0  0  0
  6 16  1  0  0  0  0
  7  8  1  0  0  0  0
  8 23  2  0  0  0  0
  9  7  1  0  0  0  0
 10  5  2  0  0  0  0
 11  1  1  0  0  0  0
 12  9  1  0  0  0  0
 13 15  2  0  0  0  0
 14 11  2  0  0  0  0
 15 19  1  0  0  0  0
 16 25  1  0  0  0  0
 17 12  1  0  0  0  0
 12 18  1  6  0  0  0
 19 20  1  0  0  0  0
 20 22  1  0  0  0  0
 21  3  1  0  0  0  0
 22 14  1  0  0  0  0
 23 32  1  0  0  0  0
 24 14  1  0  0  0  0
 25 18  2  0  0  0  0
 26 35  1  0  0  0  0
 27 26  3  0  0  0  0
 28  6  1  0  0  0  0
 29  6  2  0  0  0  0
 30  2  1  0  0  0  0
 31  7  2  0  0  0  0
 32 19  2  0  0  0  0
 33 17  2  0  0  0  0
 34 13  1  0  0  0  0
 35 20  1  0  0  0  0
 36 17  1  0  0  0  0
 37 10  1  0  0  0  0
 38 18  1  0  0  0  0
 39 40  1  0  0  0  0
 40 38  2  0  0  0  0
 41 24  1  0  0  0  0
 24 21  2  0  0  0  0
 10  4  1  0  0  0  0
 13  8  1  0  0  0  0
 39 16  2  0  0  0  0
M  CHG  2   6   1  28  -1
M  END
>  <Mol Weight>
557.5292

>  <Formula>
C29H24FN5O6

>  <chembl_id>
CHEMBL6271

$$$$

  Mrv0541 06201412482D          

 41 41  0  0  1  0            999 V2000
    8.7692   -0.5456    0.0000 N   0  0  0  0  0  0  0  0  0  0  0  0
    8.0484   -0.9523    0.0000 C   0  0  0  0  0  0  0  0  0  0  0  0
    7.3407   -0.5291    0.0000 C   0  0  1  0  0  0  0  0  0  0  0  0
    5.9123   -0.5092    0.0000 C   0  0  0  0  0  0  0  0  0  0  0  0
    6.6166   -0.9325    0.0000 N   0  0  0  0  0  0  0  0  0  0  0  0
    8.8618    0.2678    0.0000 C   0  0  2  0  0  0  0  0  0  0  0  0
    5.1881   -0.9126    0.0000 C   0  0  2  0  0  0  0  0  0  0  0  0
    5.1815   -1.7360    0.0000 C   0  0  0  0  0  0  0  0  0  0  0  0
    1.6203   -0.4497    0.0000 C   0  0  0  0  0  0  0  0  0  0  0  0
    3.0190   -2.9396    0.0000 C   0  0  0  0  0  0  0  0  0  0  0  0
    8.2567    0.8299    0.0000 C   0  0  0  0  0  0  0  0  0  0  0  0
    4.4772   -0.4894    0.0000 N   0  0  0  0  0  0  0  0  0  0  0  0
    0.1918   -0.4299    0.0000 N   0  0  0  0  0  0  0  0  0  0  0  0
    5.4064   -2.1824    0.0000 C   0  0  0  0  0  0  0  0  0  0  0  0
    3.7596   -0.8928    0.0000 C   0  0  0  0  0  0  0  0  0  0  0  0
    2.3246   -0.8763    0.0000 N   0  0  0  0  0  0  0  0  0  0  0  0
   -0.5323   -0.8333    0.0000 C   0  0  0  0  0  0  0  0  0  0  0  0
    0.8961   -0.8531    0.0000 C   0  0  1  0  0  0  0  0  0  0  0  0
    3.0289   -2.1229    0.0000 N   0  0  0  0  0  0  0  0  0  0  0  0
    8.0385   -1.7757    0.0000 O   0  0  0  0  0  0  0  0  0  0  0  0
    5.9222    0.3141    0.0000 O   0  0  0  0  0  0  0  0  0  0  0  0
    1.6368    0.3736    0.0000 O   0  0  0  0  0  0  0  0  0  0  0  0
    7.7210    0.6216    0.0000 O   0  0  0  0  0  0  0  0  0  0  0  0
    5.2708   -2.9462    0.0000 O   0  0  0  0  0  0  0  0  0  0  0  0
    3.7497   -1.7161    0.0000 O   0  0  0  0  0  0  0  0  0  0  0  0
   -0.5423   -1.6600    0.0000 O   0  0  0  0  0  0  0  0  0  0  0  0
    2.2948   -3.3463    0.0000 N   0  0  0  0  0  0  0  0  0  0  0  0
    3.0487   -0.4696    0.0000 C   0  0  0  0  0  0  0  0  0  0  0  0
    3.7233   -3.3662    0.0000 N   0  0  0  0  0  0  0  0  0  0  0  0
    9.5165   -0.8961    0.0000 C   0  0  0  0  0  0  0  0  0  0  0  0
    8.4418    1.6368    0.0000 O   0  0  0  0  0  0  0  0  0  0  0  0
    6.2330   -2.3709    0.0000 O   0  0  0  0  0  0  0  0  0  0  0  0
    7.3507    0.2943    0.0000 C   0  0  0  0  0  0  0  0  0  0  0  0
   -1.9542   -0.8168    0.0000 N   0  0  0  0  0  0  0  0  0  0  0  0
    9.6752    0.4331    0.0000 C   0  0  0  0  0  0  0  0  0  0  0  0
   -1.2400   -0.4100    0.0000 C   0  0  0  0  0  0  0  0  0  0  0  0
    6.7191    0.9192    0.0000 O   0  0  0  0  0  0  0  0  0  0  0  0
   10.0786   -0.2910    0.0000 C   0  0  0  0  0  0  0  0  0  0  0  0
    0.8928   -1.6765    0.0000 C   0  0  0  0  0  0  0  0  0  0  0  0
    1.5872   -2.9264    0.0000 C   0  0  0  0  0  0  0  0  0  0  0  0
    1.6004   -2.1030    0.0000 C   0  0  0  0  0  0  0  0  0  0  0  0
  2  1  1  0  0  0  0
  3  2  1  0  0  0  0
  4  5  1  0  0  0  0
  3  5  1  1  0  0  0
  6  1  1  0  0  0  0
  7  4  1  0  0  0  0
  7  8  1  6  0  0  0
  9 16  1  0  0  0  0
 10 27  2  0  0  0  0
  6 11  1  6  0  0  0
 12  7  1  0  0  0  0
 18 13  1  6  0  0  0
 14  8  1  0  0  0  0
 15 12  1  0  0  0  0
 16 28  1  0  0  0  0
 17 13  1  0  0  0  0
 18  9  1  0  0  0  0
 19 10  1  0  0  0  0
 20  2  2  0  0  0  0
 21  4  2  0  0  0  0
 22  9  2  0  0  0  0
 23 11  2  0  0  0  0
 24 14  2  0  0  0  0
 25 15  2  0  0  0  0
 26 17  2  0  0  0  0
 27 40  1  0  0  0  0
 28 15  1  0  0  0  0
 29 10  1  0  0  0  0
 30  1  1  0  0  0  0
 31 11  1  0  0  0  0
 32 14  1  0  0  0  0
  3 33  1  0  0  0  0
 34 36  1  0  0  0  0
  6 35  1  0  0  0  0
 36 17  1  0  0  0  0
 37 33  1  0  0  0  0
 38 30  1  0  0  0  0
 18 39  1  0  0  0  0
 40 41  1  0  0  0  0
 41 39  1  0  0  0  0
 38 35  1  0  0  0  0
M  END
>  <Mol Weight>
587.5835

>  <Formula>
C22H37N9O10

>  <chembl_id>
CHEMBL6602

$$$$

  Mrv0541 06201412482D          

 42 46  0  0  0  0            999 V2000
    2.8875  -13.9292    0.0000 C   0  0  0  0  0  0  0  0  0  0  0  0
    2.8917  -13.1042    0.0000 C   0  0  0  0  0  0  0  0  0  0  0  0
    4.3167  -13.9375    0.0000 C   0  0  0  0  0  0  0  0  0  0  0  0
   12.7042  -13.0917    0.0000 N   0  0  0  0  0  0  0  0  0  0  0  0
    3.6042  -12.6917    0.0000 O   0  0  0  0  0  0  0  0  0  0  0  0
   12.7000  -13.8125    0.0000 C   0  0  0  0  0  0  0  0  0  0  0  0
    2.1750  -14.3500    0.0000 C   0  0  0  0  0  0  0  0  0  0  0  0
   11.4625  -13.0792    0.0000 C   0  0  0  0  0  0  0  0  0  0  0  0
   12.0792  -12.7250    0.0000 C   0  0  0  0  0  0  0  0  0  0  0  0
    4.3167  -13.1042    0.0000 C   0  0  0  0  0  0  0  0  0  0  0  0
    1.4625  -13.9375    0.0000 C   0  0  0  0  0  0  0  0  0  0  0  0
   11.4542  -13.8042    0.0000 S   0  0  0  0  0  0  0  0  0  0  0  0
    2.1750  -12.6917    0.0000 C   0  0  0  0  0  0  0  0  0  0  0  0
    1.4625  -13.1125    0.0000 C   0  0  0  0  0  0  0  0  0  0  0  0
   10.7417  -12.6750    0.0000 C   0  0  0  0  0  0  0  0  0  0  0  0
    0.7417  -14.3417    0.0000 O   0  0  0  0  0  0  0  0  0  0  0  0
    5.0292  -14.3500    0.0000 C   0  0  0  0  0  0  0  0  0  0  0  0
   13.2792  -14.3917    0.0000 O   0  0  0  0  0  0  0  0  0  0  0  0
   12.0750  -12.0000    0.0000 O   0  0  0  0  0  0  0  0  0  0  0  0
   10.0292  -13.0875    0.0000 C   0  0  0  0  0  0  0  0  0  0  0  0
    5.7417  -13.9292    0.0000 N   0  0  0  0  0  0  0  0  0  0  0  0
    0.7375  -15.1667    0.0000 C   0  0  0  0  0  0  0  0  0  0  0  0
    8.6042  -13.9042    0.0000 C   0  0  0  0  0  0  0  0  0  0  0  0
    2.1792  -15.1750    0.0000 C   0  0  0  0  0  0  0  0  0  0  0  0
    5.0292  -13.5167    0.0000 C   0  0  0  0  0  0  0  0  0  0  0  0
    5.0375  -12.7000    0.0000 C   0  0  0  0  0  0  0  0  0  0  0  0
   10.0292  -13.9125    0.0000 C   0  0  0  0  0  0  0  0  0  0  0  0
    9.3125  -12.6750    0.0000 C   0  0  0  0  0  0  0  0  0  0  0  0
    2.1667  -11.8667    0.0000 C   0  0  0  0  0  0  0  0  0  0  0  0
    0.7500  -12.7000    0.0000 C   0  0  0  0  0  0  0  0  0  0  0  0
    9.3167  -14.3250    0.0000 C   0  0  0  0  0  0  0  0  0  0  0  0
    8.6042  -13.0875    0.0000 C   0  0  0  0  0  0  0  0  0  0  0  0
    0.0167  -15.5750    0.0000 C   0  0  0  0  0  0  0  0  0  0  0  0
    7.8917  -14.3167    0.0000 O   0  0  0  0  0  0  0  0  0  0  0  0
    7.1667  -13.9167    0.0000 C   0  0  0  0  0  0  0  0  0  0  0  0
    6.4625  -14.3375    0.0000 C   0  0  0  0  0  0  0  0  0  0  0  0
    5.7292  -13.1042    0.0000 C   0  0  0  0  0  0  0  0  0  0  0  0
   -0.6958  -15.1542    0.0000 C   0  0  0  0  0  0  0  0  0  0  0  0
    0.0125  -16.3917    0.0000 C   0  0  0  0  0  0  0  0  0  0  0  0
   -0.7000  -16.8042    0.0000 C   0  0  0  0  0  0  0  0  0  0  0  0
   -1.4083  -15.5542    0.0000 C   0  0  0  0  0  0  0  0  0  0  0  0
   -1.4208  -16.3875    0.0000 C   0  0  0  0  0  0  0  0  0  0  0  0
  2  1  1  0  0  0  0
  3  1  1  0  0  0  0
  4  9  1  0  0  0  0
  5  2  1  0  0  0  0
  6 12  1  0  0  0  0
  7  1  2  0  0  0  0
  8 15  2  0  0  0  0
  9  8  1  0  0  0  0
 10  3  1  0  0  0  0
 11  7  1  0  0  0  0
 12  8  1  0  0  0  0
 13  2  2  0  0  0  0
 14 11  2  0  0  0  0
 15 20  1  0  0  0  0
 16 11  1  0  0  0  0
 17  3  1  0  0  0  0
 18  6  2  0  0  0  0
 19  9  2  0  0  0  0
 20 28  1  0  0  0  0
 21 17  1  0  0  0  0
 22 16  1  0  0  0  0
 23 34  1  0  0  0  0
 24  7  1  0  0  0  0
 25 10  1  0  0  0  0
 26 10  1  0  0  0  0
 27 31  1  0  0  0  0
 28 32  2  0  0  0  0
 29 13  1  0  0  0  0
 30 14  1  0  0  0  0
 31 23  2  0  0  0  0
 32 23  1  0  0  0  0
 33 22  1  0  0  0  0
 34 35  1  0  0  0  0
 35 36  1  0  0  0  0
 36 21  1  0  0  0  0
 37 21  1  0  0  0  0
 38 33  2  0  0  0  0
 39 33  1  0  0  0  0
 40 39  2  0  0  0  0
 41 38  1  0  0  0  0
 42 40  1  0  0  0  0
  5 10  1  0  0  0  0
 14 13  1  0  0  0  0
 42 41  2  0  0  0  0
 20 27  2  0  0  0  0
  4  6  1  0  0  0  0
M  END
>  <Mol Weight>
586.741

>  <Formula>
C34H38N2O5S

>  <chembl_id>
CHEMBL6605

$$$$

  Mrv0541 06201412482D          

 41 44  0  0  1  0            999 V2000
    5.8152   -8.6797    0.0000 C   0  0  0  0  0  0  0  0  0  0  0  0
   10.0948   -8.6797    0.0000 C   0  0  0  0  0  0  0  0  0  0  0  0
    4.3886   -8.6797    0.0000 C   0  0  0  0  0  0  0  0  0  0  0  0
    7.9464   -9.0922    0.0000 C   0  0  0  0  0  0  0  0  0  0  0  0
    8.6683   -8.6797    0.0000 N   0  0  0  0  0  0  0  0  0  0  0  0
   10.8167   -9.0922    0.0000 N   0  0  0  0  0  0  0  0  0  0  0  0
    9.3902   -9.0922    0.0000 C   0  0  1  0  0  0  0  0  0  0  0  0
   11.5214   -8.6797    0.0000 C   0  0  2  0  0  0  0  0  0  0  0  0
    6.5198   -9.0922    0.0000 N   0  0  0  0  0  0  0  0  0  0  0  0
    5.0933   -9.0922    0.0000 N   0  0  0  0  0  0  0  0  0  0  0  0
   12.2433   -9.0922    0.0000 C   0  0  0  0  0  0  0  0  0  0  0  0
    7.2417   -8.6797    0.0000 C   0  0  1  0  0  0  0  0  0  0  0  0
    3.1511   -7.6313    0.0000 C   0  0  0  0  0  0  0  0  0  0  0  0
    3.8902   -8.6625    0.0000 C   0  0  0  0  0  0  0  0  0  0  0  0
    4.4745   -7.3219    0.0000 C   0  0  0  0  0  0  0  0  0  0  0  0
    5.8152   -7.8547    0.0000 O   0  0  0  0  0  0  0  0  0  0  0  0
   10.0948   -7.8547    0.0000 O   0  0  0  0  0  0  0  0  0  0  0  0
    7.9464   -9.9172    0.0000 O   0  0  0  0  0  0  0  0  0  0  0  0
    4.9214   -8.0667    0.0000 C   0  0  0  0  0  0  0  0  0  0  0  0
    4.3198   -9.5047    0.0000 C   0  0  0  0  0  0  0  0  0  0  0  0
    3.5808   -8.3875    0.0000 C   0  0  0  0  0  0  0  0  0  0  0  0
   11.5214   -7.8547    0.0000 C   0  0  0  0  0  0  0  0  0  0  0  0
   12.2433   -9.9172    0.0000 O   0  0  0  0  0  0  0  0  0  0  0  0
    9.3902   -9.9172    0.0000 C   0  0  0  0  0  0  0  0  0  0  0  0
    3.7011   -7.0355    0.0000 C   0  0  0  0  0  0  0  0  0  0  0  0
    4.3886   -8.0953    0.0000 C   0  0  0  0  0  0  0  0  0  0  0  0
    3.1511   -8.4047    0.0000 C   0  0  0  0  0  0  0  0  0  0  0  0
   12.9480   -8.6797    0.0000 O   0  0  0  0  0  0  0  0  0  0  0  0
    7.2417   -7.8547    0.0000 C   0  0  0  0  0  0  0  0  0  0  0  0
   12.2433   -7.4422    0.0000 C   0  0  0  0  0  0  0  0  0  0  0  0
    7.9464   -6.6172    0.0000 S   0  0  0  0  0  0  0  0  0  0  0  0
   10.0948  -10.3297    0.0000 C   0  0  0  0  0  0  0  0  0  0  0  0
    7.9464   -7.4422    0.0000 C   0  0  0  0  0  0  0  0  0  0  0  0
    8.6683   -6.1933    0.0000 C   0  0  0  0  0  0  0  0  0  0  0  0
   12.9480   -7.8547    0.0000 C   0  0  0  0  0  0  0  0  0  0  0  0
   12.2433   -6.6172    0.0000 C   0  0  0  0  0  0  0  0  0  0  0  0
   10.0948  -11.1547    0.0000 C   0  0  0  0  0  0  0  0  0  0  0  0
   10.8167   -9.9172    0.0000 C   0  0  0  0  0  0  0  0  0  0  0  0
   12.9480   -6.1933    0.0000 C   0  0  0  0  0  0  0  0  0  0  0  0
   13.6698   -7.4422    0.0000 C   0  0  0  0  0  0  0  0  0  0  0  0
   13.6698   -6.6172    0.0000 C   0  0  0  0  0  0  0  0  0  0  0  0
  2  7  1  0  0  0  0
  3 10  1  0  0  0  0
  4 12  1  0  0  0  0
  5  4  1  0  0  0  0
  6  2  1  0  0  0  0
  7  5  1  0  0  0  0
  8  6  1  0  0  0  0
  9  1  1  0  0  0  0
 10  1  1  0  0  0  0
 11  8  1  0  0  0  0
 12  9  1  0  0  0  0
 13 21  1  0  0  0  0
 14 20  1  0  0  0  0
 15 19  1  0  0  0  0
 16  1  2  0  0  0  0
 17  2  2  0  0  0  0
 18  4  2  0  0  0  0
 19  3  1  0  0  0  0
 20  3  1  0  0  0  0
 21  3  1  0  0  0  0
  8 22  1  1  0  0  0
 23 11  2  0  0  0  0
  7 24  1  6  0  0  0
 25 13  1  0  0  0  0
 26 14  1  0  0  0  0
 27 13  1  0  0  0  0
 28 11  1  0  0  0  0
 12 29  1  1  0  0  0
 30 22  1  0  0  0  0
 31 33  1  0  0  0  0
 32 24  1  0  0  0  0
 33 29  1  0  0  0  0
 34 31  1  0  0  0  0
 35 30  2  0  0  0  0
 36 30  1  0  0  0  0
 37 32  1  0  0  0  0
 38 32  1  0  0  0  0
 39 36  2  0  0  0  0
 40 35  1  0  0  0  0
 41 39  1  0  0  0  0
 27 14  1  0  0  0  0
 25 15  1  0  0  0  0
 26 15  1  0  0  0  0
 41 40  2  0  0  0  0
M  END
>  <Mol Weight>
586.786

>  <Formula>
C31H46N4O5S

>  <chembl_id>
CHEMBL6779

$$$$

  Mrv0541 06201412482D          

 36 39  0  0  0  0            999 V2000
    5.0076   -1.9555    0.0000 C   0  0  0  0  0  0  0  0  0  0  0  0
    5.0076   -2.7894    0.0000 N   0  0  0  0  0  0  0  0  0  0  0  0
    3.5817   -2.7936    0.0000 C   0  0  0  0  0  0  0  0  0  0  0  0
    4.2946   -3.2064    0.0000 C   0  0  0  0  0  0  0  0  0  0  0  0
    4.2904   -1.5511    0.0000 N   0  0  0  0  0  0  0  0  0  0  0  0
    3.5817   -1.9680    0.0000 C   0  0  0  0  0  0  0  0  0  0  0  0
    5.7206   -1.5428    0.0000 N   0  0  0  0  0  0  0  0  0  0  0  0
    7.1466   -0.7172    0.0000 N   0  0  0  0  0  0  0  0  0  0  0  0
    7.8596   -0.3002    0.0000 C   0  0  0  0  0  0  0  0  0  0  0  0
    2.8645   -3.2064    0.0000 C   0  0  0  0  0  0  0  0  0  0  0  0
    2.8645   -1.5553    0.0000 C   0  0  0  0  0  0  0  0  0  0  0  0
    8.5726   -0.7130    0.0000 C   0  0  0  0  0  0  0  0  0  0  0  0
    2.1515   -2.7936    0.0000 C   0  0  0  0  0  0  0  0  0  0  0  0
    2.1515   -1.9680    0.0000 C   0  0  0  0  0  0  0  0  0  0  0  0
    8.5809   -1.5386    0.0000 C   0  0  0  0  0  0  0  0  0  0  0  0
   12.1500   -2.7686    0.0000 C   0  0  0  0  0  0  0  0  0  0  0  0
   11.4370   -3.1814    0.0000 N   0  0  0  0  0  0  0  0  0  0  0  0
    5.7164   -0.7172    0.0000 C   0  0  0  0  0  0  0  0  0  0  0  0
    6.4336   -1.9555    0.0000 C   0  0  0  0  0  0  0  0  0  0  0  0
    7.1466   -1.5428    0.0000 C   0  0  0  0  0  0  0  0  0  0  0  0
    6.4294   -0.3044    0.0000 C   0  0  0  0  0  0  0  0  0  0  0  0
    7.8596    0.5254    0.0000 O   0  0  0  0  0  0  0  0  0  0  0  0
   12.1500   -1.9430    0.0000 O   0  0  0  0  0  0  0  0  0  0  0  0
    4.2946   -4.0320    0.0000 N   0  0  0  0  0  0  0  0  0  0  0  0
    9.2981   -1.9513    0.0000 C   0  0  0  0  0  0  0  0  0  0  0  0
   10.7240   -2.7686    0.0000 C   0  0  0  0  0  0  0  0  0  0  0  0
    1.4302   -3.2064    0.0000 O   0  0  0  0  0  0  0  0  0  0  0  0
    1.4385   -1.5553    0.0000 O   0  0  0  0  0  0  0  0  0  0  0  0
   10.0069   -1.5302    0.0000 C   0  0  0  0  0  0  0  0  0  0  0  0
    9.2939   -2.7769    0.0000 C   0  0  0  0  0  0  0  0  0  0  0  0
   10.0111   -3.1814    0.0000 C   0  0  0  0  0  0  0  0  0  0  0  0
   10.7115   -1.9430    0.0000 C   0  0  0  0  0  0  0  0  0  0  0  0
   13.5843   -2.7561    0.0000 Br  0  0  0  0  0  0  0  0  0  0  0  0
   12.8713   -3.1772    0.0000 C   0  0  0  0  0  0  0  0  0  0  0  0
    0.7172   -2.7936    0.0000 C   0  0  0  0  0  0  0  0  0  0  0  0
    0.7172   -1.9680    0.0000 C   0  0  0  0  0  0  0  0  0  0  0  0
  2  1  1  0  0  0  0
  3  6  1  0  0  0  0
  4  2  2  0  0  0  0
  5  1  2  0  0  0  0
  6  5  1  0  0  0  0
  7  1  1  0  0  0  0
  8 20  1  0  0  0  0
  9  8  1  0  0  0  0
 10  3  2  0  0  0  0
 11  6  2  0  0  0  0
 12  9  1  0  0  0  0
 13 14  2  0  0  0  0
 14 11  1  0  0  0  0
 15 12  2  0  0  0  0
 16 17  1  0  0  0  0
 17 26  1  0  0  0  0
 18  7  1  0  0  0  0
 19  7  1  0  0  0  0
 20 19  1  0  0  0  0
 21 18  1  0  0  0  0
 22  9  2  0  0  0  0
 23 16  2  0  0  0  0
 24  4  1  0  0  0  0
 25 15  1  0  0  0  0
 26 31  2  0  0  0  0
 27 13  1  0  0  0  0
 28 14  1  0  0  0  0
 29 25  1  0  0  0  0
 30 25  2  0  0  0  0
 31 30  1  0  0  0  0
 32 29  2  0  0  0  0
 33 34  1  0  0  0  0
 34 16  1  0  0  0  0
 35 27  1  0  0  0  0
 36 28  1  0  0  0  0
  3  4  1  0  0  0  0
 21  8  1  0  0  0  0
 13 10  1  0  0  0  0
 32 26  1  0  0  0  0
M  END
>  <Mol Weight>
555.424

>  <Formula>
C25H27BrN6O4

>  <chembl_id>
CHEMBL6343

$$$$

  Mrv0541 06201412482D          

 37 39  0  0  0  0            999 V2000
    1.8706   -3.8246    0.0000 C   0  0  0  0  0  0  0  0  0  0  0  0
    1.1691   -3.3987    0.0000 C   0  0  0  0  0  0  0  0  0  0  0  0
    2.5845   -3.4196    0.0000 C   0  0  0  0  0  0  0  0  0  0  0  0
    1.8538   -4.6513    0.0000 C   0  0  0  0  0  0  0  0  0  0  0  0
    1.1774   -2.5720    0.0000 C   0  0  0  0  0  0  0  0  0  0  0  0
    2.6054   -2.6096    0.0000 C   0  0  0  0  0  0  0  0  0  0  0  0
    3.2985   -3.8497    0.0000 C   0  0  0  0  0  0  0  0  0  0  0  0
    1.1315   -5.0521    0.0000 C   0  0  0  0  0  0  0  0  0  0  0  0
    2.5595   -5.0647    0.0000 C   0  0  0  0  0  0  0  0  0  0  0  0
    1.8288   -6.2922    0.0000 C   0  0  0  0  0  0  0  0  0  0  0  0
   12.5677   -2.5803    0.0000 N   0  0  0  0  0  0  0  0  0  0  0  0
    4.0250   -2.6304    0.0000 C   0  0  0  0  0  0  0  0  0  0  0  0
    1.1190   -5.8663    0.0000 C   0  0  0  0  0  0  0  0  0  0  0  0
    2.5470   -5.8997    0.0000 C   0  0  0  0  0  0  0  0  0  0  0  0
    4.0250   -3.4488    0.0000 C   0  0  0  0  0  0  0  0  0  0  0  0
    3.3236   -2.2046    0.0000 C   0  0  0  0  0  0  0  0  0  0  0  0
    1.8205   -7.1314    0.0000 I   0  0  0  0  0  0  0  0  0  0  0  0
    0.4426   -3.7996    0.0000 C   0  0  0  0  0  0  0  0  0  0  0  0
    4.7390   -2.2296    0.0000 O   0  0  0  0  0  0  0  0  0  0  0  0
    0.4677   -2.1336    0.0000 C   0  0  0  0  0  0  0  0  0  0  0  0
    1.8956   -2.1712    0.0000 C   0  0  0  0  0  0  0  0  0  0  0  0
   11.8495   -2.1795    0.0000 C   0  0  0  0  0  0  0  0  0  0  0  0
   12.5802   -3.3987    0.0000 C   0  0  0  0  0  0  0  0  0  0  0  0
   13.2775   -2.1545    0.0000 C   0  0  0  0  0  0  0  0  0  0  0  0
    5.4488   -2.6430    0.0000 C   0  0  0  0  0  0  0  0  0  0  0  0
    0.4301   -4.6137    0.0000 C   0  0  0  0  0  0  0  0  0  0  0  0
   11.1397   -2.6054    0.0000 C   0  0  0  0  0  0  0  0  0  0  0  0
    6.1670   -2.2338    0.0000 C   0  0  0  0  0  0  0  0  0  0  0  0
   10.4132   -2.2046    0.0000 C   0  0  0  0  0  0  0  0  0  0  0  0
    6.8684   -2.6472    0.0000 C   0  0  0  0  0  0  0  0  0  0  0  0
    7.5824   -2.2338    0.0000 C   0  0  0  0  0  0  0  0  0  0  0  0
    8.2964   -2.6472    0.0000 C   0  0  0  0  0  0  0  0  0  0  0  0
    9.0061   -2.2296    0.0000 C   0  0  0  0  0  0  0  0  0  0  0  0
    9.7118   -2.6304    0.0000 C   0  0  0  0  0  0  0  0  0  0  0  0
    1.9165   -1.3445    0.0000 C   0  0  0  0  0  0  0  0  0  0  0  0
    0.4802   -1.3194    0.0000 C   0  0  0  0  0  0  0  0  0  0  0  0
    1.2067   -0.9186    0.0000 C   0  0  0  0  0  0  0  0  0  0  0  0
  2  1  2  0  0  0  0
  3  1  1  0  0  0  0
  4  1  1  0  0  0  0
  5  2  1  0  0  0  0
  6  3  1  0  0  0  0
  7  3  2  0  0  0  0
  8  4  2  0  0  0  0
  9  4  1  0  0  0  0
 10 14  1  0  0  0  0
 11 22  1  0  0  0  0
 12 15  2  0  0  0  0
 13  8  1  0  0  0  0
 14  9  2  0  0  0  0
 15  7  1  0  0  0  0
 16  6  2  0  0  0  0
 17 10  1  0  0  0  0
 18  2  1  0  0  0  0
 19 12  1  0  0  0  0
 20  5  2  0  0  0  0
 21  5  1  0  0  0  0
 22 27  1  0  0  0  0
 23 11  1  0  0  0  0
 24 11  1  0  0  0  0
 25 19  1  0  0  0  0
 26 18  1  0  0  0  0
 27 29  1  0  0  0  0
 28 25  1  0  0  0  0
 29 34  1  0  0  0  0
 30 28  1  0  0  0  0
 31 30  1  0  0  0  0
 32 31  1  0  0  0  0
 33 32  1  0  0  0  0
 34 33  1  0  0  0  0
 35 21  2  0  0  0  0
 36 20  1  0  0  0  0
 37 35  1  0  0  0  0
 10 13  2  0  0  0  0
 12 16  1  0  0  0  0
 37 36  2  0  0  0  0
M  END
>  <Mol Weight>
609.6237

>  <Formula>
C34H44INO

>  <chembl_id>
CHEMBL6596

$$$$

  Mrv0541 06201412482D          

 40 44  0  0  0  0            999 V2000
   12.2756   -3.7623    0.0000 N   0  0  0  0  0  0  0  0  0  0  0  0
   12.0123   -4.5697    0.0000 C   0  0  0  0  0  0  0  0  0  0  0  0
    3.9554   -4.6691    0.0000 N   0  0  0  0  0  0  0  0  0  0  0  0
    3.4814   -5.3362    0.0000 C   0  0  0  0  0  0  0  0  0  0  0  0
   11.1697   -4.5697    0.0000 N   0  0  0  0  0  0  0  0  0  0  0  0
   11.6027   -3.2708    0.0000 C   0  0  0  0  0  0  0  0  0  0  0  0
    4.7277   -4.9324    0.0000 C   0  0  0  0  0  0  0  0  0  0  0  0
    3.9554   -5.9915    0.0000 O   0  0  0  0  0  0  0  0  0  0  0  0
   10.9064   -3.7623    0.0000 O   0  0  0  0  0  0  0  0  0  0  0  0
    4.7277   -5.7458    0.0000 C   0  0  0  0  0  0  0  0  0  0  0  0
    0.2106   -5.3245    0.0000 C   0  0  0  0  0  0  0  0  0  0  0  0
    8.9405   -4.6399    0.0000 C   0  0  0  0  0  0  0  0  0  0  0  0
    9.7304   -4.3415    0.0000 C   0  0  0  0  0  0  0  0  0  0  0  0
    8.2032   -4.1485    0.0000 C   0  0  0  0  0  0  0  0  0  0  0  0
   10.3798   -4.8681    0.0000 C   0  0  0  0  0  0  0  0  0  0  0  0
    2.6564   -5.3362    0.0000 C   0  0  0  0  0  0  0  0  0  0  0  0
    1.0240   -5.3362    0.0000 C   0  0  0  0  0  0  0  0  0  0  0  0
   12.5038   -5.2484    0.0000 O   0  0  0  0  0  0  0  0  0  0  0  0
    5.3947   -4.4469    0.0000 C   0  0  0  0  0  0  0  0  0  0  0  0
   11.6086   -2.4282    0.0000 O   0  0  0  0  0  0  0  0  0  0  0  0
    7.5362   -4.6340    0.0000 C   0  0  0  0  0  0  0  0  0  0  0  0
    8.8527   -5.4825    0.0000 C   0  0  0  0  0  0  0  0  0  0  0  0
    2.2468   -6.0442    0.0000 C   0  0  0  0  0  0  0  0  0  0  0  0
    2.2527   -4.6224    0.0000 C   0  0  0  0  0  0  0  0  0  0  0  0
    1.4277   -6.0442    0.0000 C   0  0  0  0  0  0  0  0  0  0  0  0
    1.4394   -4.6224    0.0000 C   0  0  0  0  0  0  0  0  0  0  0  0
   -0.1931   -4.6224    0.0000 F   0  0  0  0  0  0  0  0  0  0  0  0
   -0.2047   -6.0266    0.0000 F   0  0  0  0  0  0  0  0  0  0  0  0
    0.4272   -4.5463    0.0000 F   0  0  0  0  0  0  0  0  0  0  0  0
    6.1436   -4.7804    0.0000 O   0  0  0  0  0  0  0  0  0  0  0  0
    6.7990   -4.2889    0.0000 C   0  0  0  0  0  0  0  0  0  0  0  0
    5.3947   -6.2197    0.0000 C   0  0  0  0  0  0  0  0  0  0  0  0
    8.1155   -3.3410    0.0000 C   0  0  0  0  0  0  0  0  0  0  0  0
    7.3723   -3.0075    0.0000 C   0  0  0  0  0  0  0  0  0  0  0  0
    6.7112   -3.4814    0.0000 C   0  0  0  0  0  0  0  0  0  0  0  0
    8.0804   -5.8160    0.0000 C   0  0  0  0  0  0  0  0  0  0  0  0
    9.5314   -5.9740    0.0000 C   0  0  0  0  0  0  0  0  0  0  0  0
    9.4320   -6.8165    0.0000 C   0  0  0  0  0  0  0  0  0  0  0  0
    7.9867   -6.6527    0.0000 C   0  0  0  0  0  0  0  0  0  0  0  0
    8.6596   -7.1500    0.0000 C   0  0  0  0  0  0  0  0  0  0  0  0
  2  1  1  0  0  0  0
  3  7  1  0  0  0  0
  4  3  2  0  0  0  0
  5  2  1  0  0  0  0
  6  1  1  0  0  0  0
  7 19  1  0  0  0  0
  8 10  1  0  0  0  0
  9  6  1  0  0  0  0
 10  7  2  0  0  0  0
 11 17  1  0  0  0  0
 12 13  2  0  0  0  0
 13 15  1  0  0  0  0
 14 12  1  0  0  0  0
 15  5  1  0  0  0  0
 16  4  1  0  0  0  0
 17 26  2  0  0  0  0
 18  2  2  0  0  0  0
 19 30  1  0  0  0  0
 20  6  2  0  0  0  0
 21 14  1  0  0  0  0
 22 12  1  0  0  0  0
 23 16  1  0  0  0  0
 24 16  2  0  0  0  0
 25 23  2  0  0  0  0
 26 24  1  0  0  0  0
 27 11  1  0  0  0  0
 28 11  1  0  0  0  0
 29 11  1  0  0  0  0
 30 31  1  0  0  0  0
 31 21  2  0  0  0  0
 32 10  1  0  0  0  0
 33 14  2  0  0  0  0
 34 33  1  0  0  0  0
 35 34  2  0  0  0  0
 36 22  1  0  0  0  0
 37 22  1  0  0  0  0
 38 37  1  0  0  0  0
 39 36  1  0  0  0  0
 40 38  1  0  0  0  0
  5  9  1  0  0  0  0
 40 39  1  0  0  0  0
 31 35  1  0  0  0  0
  8  4  1  0  0  0  0
 25 17  1  0  0  0  0
M  END
>  <Mol Weight>
555.5449

>  <Formula>
C29H28F3N3O5

>  <chembl_id>
CHEMBL6982

$$$$

  Mrv0541 06201412482D          

 42 45  0  0  0  0            999 V2000
   -5.1889   -0.2791    0.0000 C   0  0  0  0  0  0  0  0  0  0  0  0
   -5.1901   -1.1065    0.0000 C   0  0  0  0  0  0  0  0  0  0  0  0
   -4.4753   -1.5194    0.0000 C   0  0  0  0  0  0  0  0  0  0  0  0
   -3.7588   -1.1060    0.0000 C   0  0  0  0  0  0  0  0  0  0  0  0
   -3.7617   -0.2755    0.0000 C   0  0  0  0  0  0  0  0  0  0  0  0
   -4.4771    0.1336    0.0000 C   0  0  0  0  0  0  0  0  0  0  0  0
   -3.0488    0.1397    0.0000 C   0  0  0  0  0  0  0  0  0  0  0  0
   -3.0519    0.9647    0.0000 C   0  0  0  0  0  0  0  0  0  0  0  0
   -2.3378    1.3754    0.0000 N   0  0  0  0  0  0  0  0  0  0  0  0
   -2.3389    2.1968    0.0000 C   0  0  0  0  0  0  0  0  0  0  0  0
   -3.0531    2.6105    0.0000 N   0  0  0  0  0  0  0  0  0  0  0  0
   -3.7678    2.1965    0.0000 C   0  0  0  0  0  0  0  0  0  0  0  0
   -3.7684    1.3689    0.0000 C   0  0  0  0  0  0  0  0  0  0  0  0
   -1.6244    2.6093    0.0000 O   0  0  0  0  0  0  0  0  0  0  0  0
   -4.4825    2.6088    0.0000 O   0  0  0  0  0  0  0  0  0  0  0  0
   -4.4809    0.9531    0.0000 C   0  0  0  0  0  0  0  0  0  0  0  0
   -1.6234    0.9628    0.0000 C   0  0  0  0  0  0  0  0  0  0  0  0
   -0.9088    1.3752    0.0000 O   0  0  0  0  0  0  0  0  0  0  0  0
   -0.1944    0.9626    0.0000 C   0  0  0  0  0  0  0  0  0  0  0  0
    0.5201    1.3750    0.0000 C   0  0  0  0  0  0  0  0  0  0  0  0
    1.2344    0.9601    0.0000 C   0  0  0  0  0  0  0  0  0  0  0  0
    1.9485    1.3718    0.0000 C   0  0  0  0  0  0  0  0  0  0  0  0
    1.9490    2.1977    0.0000 C   0  0  0  0  0  0  0  0  0  0  0  0
    1.2296    2.6101    0.0000 C   0  0  0  0  0  0  0  0  0  0  0  0
    0.5185    2.1960    0.0000 C   0  0  0  0  0  0  0  0  0  0  0  0
    2.6630    2.6110    0.0000 C   0  0  0  0  0  0  0  0  0  0  0  0
    3.3780    2.1993    0.0000 C   0  0  0  0  0  0  0  0  0  0  0  0
    3.3774    1.3739    0.0000 C   0  0  0  0  0  0  0  0  0  0  0  0
    4.0915    0.9623    0.0000 C   0  0  0  0  0  0  0  0  0  0  0  0
    4.8064    1.3757    0.0000 C   0  0  0  0  0  0  0  0  0  0  0  0
    4.8028    2.2050    0.0000 C   0  0  0  0  0  0  0  0  0  0  0  0
    4.0881    2.6129    0.0000 C   0  0  0  0  0  0  0  0  0  0  0  0
    5.5153    2.6209    0.0000 C   0  0  0  0  0  0  0  0  0  0  0  0
    6.2317    2.2117    0.0000 C   0  0  0  0  0  0  0  0  0  0  0  0
    5.5114    3.4459    0.0000 O   0  0  0  0  0  0  0  0  0  0  0  0
    6.9443    2.6276    0.0000 C   0  0  0  0  0  0  0  0  0  0  0  0
    7.6607    2.2185    0.0000 C   0  0  0  0  0  0  0  0  0  0  0  0
    6.9404    3.4526    0.0000 O   0  0  0  0  0  0  0  0  0  0  0  0
    7.6646    1.3935    0.0000 O   0  0  0  0  0  0  0  0  0  0  0  0
    8.3732    2.6343    0.0000 O   0  0  0  0  0  0  0  0  0  0  0  0
   -5.1973    1.3622    0.0000 C   0  0  0  0  0  0  0  0  0  0  0  0
   -4.9000    0.2417    0.0000 C   0  0  0  0  0  0  0  0  0  0  0  0
  2  3  1  0  0  0  0
 20 21  2  0  0  0  0
  5  6  2  0  0  0  0
 21 22  1  0  0  0  0
  6  1  1  0  0  0  0
 22 23  2  0  0  0  0
  8 13  2  0  0  0  0
 23 24  1  0  0  0  0
  9 10  1  0  0  0  0
 24 25  2  0  0  0  0
 25 20  1  0  0  0  0
 10 11  1  0  0  0  0
 23 26  1  0  0  0  0
 11 12  1  0  0  0  0
 26 27  1  0  0  0  0
 12 13  1  0  0  0  0
 27 28  2  0  0  0  0
  1  2  2  0  0  0  0
 28 29  1  0  0  0  0
 10 14  2  0  0  0  0
 29 30  2  0  0  0  0
  5  7  1  0  0  0  0
 30 31  1  0  0  0  0
 12 15  2  0  0  0  0
 31 32  2  0  0  0  0
 32 27  1  0  0  0  0
  3  4  2  0  0  0  0
 31 33  1  0  0  0  0
 13 16  1  0  0  0  0
 33 34  1  0  0  0  0
  7  8  1  0  0  0  0
 33 35  2  0  0  0  0
  9 17  1  0  0  0  0
 34 36  2  0  0  0  0
  8  9  1  0  0  0  0
 36 37  1  0  0  0  0
 17 18  1  0  0  0  0
 36 38  1  0  0  0  0
 37 39  2  0  0  0  0
 18 19  1  0  0  0  0
 37 40  1  0  0  0  0
  4  5  1  0  0  0  0
 16 41  1  0  0  0  0
 19 20  1  0  0  0  0
 16 42  1  0  0  0  0
M  END
>  <Mol Weight>
568.6164

>  <Formula>
C33H32N2O7

>  <chembl_id>
CHEMBL1163165

$$$$

  Mrv0541 06201412482D          

 41 45  0  0  0  0            999 V2000
   12.2756   -3.7623    0.0000 N   0  0  0  0  0  0  0  0  0  0  0  0
   12.0123   -4.5697    0.0000 C   0  0  0  0  0  0  0  0  0  0  0  0
    3.9554   -4.6691    0.0000 N   0  0  0  0  0  0  0  0  0  0  0  0
    3.4814   -5.3362    0.0000 C   0  0  0  0  0  0  0  0  0  0  0  0
   11.1697   -4.5697    0.0000 N   0  0  0  0  0  0  0  0  0  0  0  0
   11.6027   -3.2708    0.0000 C   0  0  0  0  0  0  0  0  0  0  0  0
    4.7277   -4.9324    0.0000 C   0  0  0  0  0  0  0  0  0  0  0  0
    3.9554   -5.9915    0.0000 O   0  0  0  0  0  0  0  0  0  0  0  0
   10.9064   -3.7623    0.0000 O   0  0  0  0  0  0  0  0  0  0  0  0
    4.7277   -5.7458    0.0000 C   0  0  0  0  0  0  0  0  0  0  0  0
    0.2106   -5.3245    0.0000 C   0  0  0  0  0  0  0  0  0  0  0  0
    8.9405   -4.6399    0.0000 C   0  0  0  0  0  0  0  0  0  0  0  0
    9.7304   -4.3415    0.0000 C   0  0  0  0  0  0  0  0  0  0  0  0
    2.6564   -5.3362    0.0000 C   0  0  0  0  0  0  0  0  0  0  0  0
    8.2032   -4.1485    0.0000 C   0  0  0  0  0  0  0  0  0  0  0  0
   10.3798   -4.8681    0.0000 C   0  0  0  0  0  0  0  0  0  0  0  0
    1.0240   -5.3362    0.0000 C   0  0  0  0  0  0  0  0  0  0  0  0
   12.5038   -5.2484    0.0000 O   0  0  0  0  0  0  0  0  0  0  0  0
    5.3947   -4.4469    0.0000 C   0  0  0  0  0  0  0  0  0  0  0  0
   11.6086   -2.4282    0.0000 O   0  0  0  0  0  0  0  0  0  0  0  0
    8.8527   -5.4825    0.0000 C   0  0  0  0  0  0  0  0  0  0  0  0
    7.5362   -4.6340    0.0000 C   0  0  0  0  0  0  0  0  0  0  0  0
    2.2468   -6.0442    0.0000 C   0  0  0  0  0  0  0  0  0  0  0  0
    2.2527   -4.6224    0.0000 C   0  0  0  0  0  0  0  0  0  0  0  0
    1.4277   -6.0442    0.0000 C   0  0  0  0  0  0  0  0  0  0  0  0
    1.4394   -4.6224    0.0000 C   0  0  0  0  0  0  0  0  0  0  0  0
   -0.1931   -4.6224    0.0000 F   0  0  0  0  0  0  0  0  0  0  0  0
   -0.2047   -6.0266    0.0000 F   0  0  0  0  0  0  0  0  0  0  0  0
    0.4272   -4.5463    0.0000 F   0  0  0  0  0  0  0  0  0  0  0  0
    6.1436   -4.7804    0.0000 O   0  0  0  0  0  0  0  0  0  0  0  0
    6.7990   -4.2889    0.0000 C   0  0  0  0  0  0  0  0  0  0  0  0
    8.0804   -5.8160    0.0000 C   0  0  0  0  0  0  0  0  0  0  0  0
    5.3947   -6.2197    0.0000 C   0  0  0  0  0  0  0  0  0  0  0  0
    8.1155   -3.3410    0.0000 C   0  0  0  0  0  0  0  0  0  0  0  0
    7.3723   -3.0075    0.0000 C   0  0  0  0  0  0  0  0  0  0  0  0
    6.7112   -3.4814    0.0000 C   0  0  0  0  0  0  0  0  0  0  0  0
    7.4074   -5.3245    0.0000 C   0  0  0  0  0  0  0  0  0  0  0  0
    7.9926   -6.6586    0.0000 C   0  0  0  0  0  0  0  0  0  0  0  0
    7.2319   -6.9921    0.0000 C   0  0  0  0  0  0  0  0  0  0  0  0
    6.6351   -5.6580    0.0000 C   0  0  0  0  0  0  0  0  0  0  0  0
    6.5357   -6.5006    0.0000 C   0  0  0  0  0  0  0  0  0  0  0  0
  2  1  1  0  0  0  0
  3  7  1  0  0  0  0
  4  3  2  0  0  0  0
  5  2  1  0  0  0  0
  6  1  1  0  0  0  0
  7 19  1  0  0  0  0
  8 10  1  0  0  0  0
  9  6  1  0  0  0  0
 10  7  2  0  0  0  0
 11 17  1  0  0  0  0
 12 13  2  0  0  0  0
 13 16  1  0  0  0  0
 14  4  1  0  0  0  0
 15 12  1  0  0  0  0
 16  5  1  0  0  0  0
 17 26  2  0  0  0  0
 18  2  2  0  0  0  0
 19 30  1  0  0  0  0
 20  6  2  0  0  0  0
 21 12  1  0  0  0  0
 22 15  1  0  0  0  0
 23 14  1  0  0  0  0
 24 14  2  0  0  0  0
 25 23  2  0  0  0  0
 26 24  1  0  0  0  0
 27 11  1  0  0  0  0
 28 11  1  0  0  0  0
 29 11  1  0  0  0  0
 30 31  1  0  0  0  0
 31 22  2  0  0  0  0
 32 21  1  0  0  0  0
 33 10  1  0  0  0  0
 34 15  2  0  0  0  0
 35 34  1  0  0  0  0
 36 35  2  0  0  0  0
 37 32  2  0  0  0  0
 38 32  1  0  0  0  0
 39 38  2  0  0  0  0
 40 37  1  0  0  0  0
 41 39  1  0  0  0  0
  5  9  1  0  0  0  0
 31 36  1  0  0  0  0
 41 40  2  0  0  0  0
  8  4  1  0  0  0  0
 25 17  1  0  0  0  0
M  END
>  <Mol Weight>
563.5239

>  <Formula>
C30H24F3N3O5

>  <chembl_id>
CHEMBL6803

$$$$

  Mrv0541 06201412482D          

 43 47  0  0  0  0            999 V2000
   10.7431   -3.6612    0.0000 N   0  0  0  0  0  0  0  0  0  0  0  0
    2.3054   -4.5193    0.0000 N   0  0  0  0  0  0  0  0  0  0  0  0
   10.2169   -4.3076    0.0000 C   0  0  0  0  0  0  0  0  0  0  0  0
    3.0719   -4.8052    0.0000 C   0  0  0  0  0  0  0  0  0  0  0  0
    1.7906   -5.1656    0.0000 C   0  0  0  0  0  0  0  0  0  0  0  0
    2.2482   -5.8407    0.0000 O   0  0  0  0  0  0  0  0  0  0  0  0
    3.0376   -5.6348    0.0000 C   0  0  0  0  0  0  0  0  0  0  0  0
    9.4446   -4.0158    0.0000 N   0  0  0  0  0  0  0  0  0  0  0  0
   10.2855   -2.9747    0.0000 C   0  0  0  0  0  0  0  0  0  0  0  0
    9.4903   -3.1921    0.0000 O   0  0  0  0  0  0  0  0  0  0  0  0
   -1.5045   -5.0169    0.0000 C   0  0  0  0  0  0  0  0  0  0  0  0
    8.0202   -4.0902    0.0000 C   0  0  0  0  0  0  0  0  0  0  0  0
    7.3338   -4.5478    0.0000 C   0  0  0  0  0  0  0  0  0  0  0  0
    0.9668   -5.1199    0.0000 C   0  0  0  0  0  0  0  0  0  0  0  0
    8.7582   -4.4678    0.0000 C   0  0  0  0  0  0  0  0  0  0  0  0
   -0.6807   -5.0513    0.0000 C   0  0  0  0  0  0  0  0  0  0  0  0
    6.5958   -4.1760    0.0000 C   0  0  0  0  0  0  0  0  0  0  0  0
    3.7641   -4.3476    0.0000 C   0  0  0  0  0  0  0  0  0  0  0  0
   10.4400   -5.1028    0.0000 O   0  0  0  0  0  0  0  0  0  0  0  0
   10.5887   -2.2024    0.0000 O   0  0  0  0  0  0  0  0  0  0  0  0
    3.6783   -6.1438    0.0000 C   0  0  0  0  0  0  0  0  0  0  0  0
    5.9207   -4.6336    0.0000 C   0  0  0  0  0  0  0  0  0  0  0  0
    0.5893   -4.3991    0.0000 C   0  0  0  0  0  0  0  0  0  0  0  0
    0.5320   -5.8235    0.0000 C   0  0  0  0  0  0  0  0  0  0  0  0
   -0.2917   -5.7892    0.0000 C   0  0  0  0  0  0  0  0  0  0  0  0
   -0.2345   -4.3590    0.0000 C   0  0  0  0  0  0  0  0  0  0  0  0
   -1.8820   -4.2904    0.0000 F   0  0  0  0  0  0  0  0  0  0  0  0
   -1.9393   -5.7148    0.0000 F   0  0  0  0  0  0  0  0  0  0  0  0
   -1.2470   -4.2275    0.0000 F   0  0  0  0  0  0  0  0  0  0  0  0
    4.4963   -4.7194    0.0000 O   0  0  0  0  0  0  0  0  0  0  0  0
    5.1828   -4.2618    0.0000 C   0  0  0  0  0  0  0  0  0  0  0  0
    6.5615   -3.3523    0.0000 C   0  0  0  0  0  0  0  0  0  0  0  0
    7.3852   -5.3716    0.0000 C   0  0  0  0  0  0  0  0  0  0  0  0
    5.8235   -2.9861    0.0000 C   0  0  0  0  0  0  0  0  0  0  0  0
    3.5582   -6.9562    0.0000 C   0  0  0  0  0  0  0  0  0  0  0  0
    4.4506   -5.8407    0.0000 C   0  0  0  0  0  0  0  0  0  0  0  0
    5.1371   -3.4381    0.0000 C   0  0  0  0  0  0  0  0  0  0  0  0
    6.6988   -5.8235    0.0000 C   0  0  0  0  0  0  0  0  0  0  0  0
    6.7445   -6.6473    0.0000 C   0  0  0  0  0  0  0  0  0  0  0  0
    6.0466   -7.0935    0.0000 C   0  0  0  0  0  0  0  0  0  0  0  0
    4.2046   -7.4710    0.0000 C   0  0  0  0  0  0  0  0  0  0  0  0
    5.0856   -6.3498    0.0000 C   0  0  0  0  0  0  0  0  0  0  0  0
    4.9769   -7.1621    0.0000 C   0  0  0  0  0  0  0  0  0  0  0  0
  2  4  1  0  0  0  0
  3  1  1  0  0  0  0
  4 18  1  0  0  0  0
  5  2  2  0  0  0  0
  6  7  1  0  0  0  0
  7  4  2  0  0  0  0
  8  3  1  0  0  0  0
  9  1  1  0  0  0  0
 10  9  1  0  0  0  0
 11 16  1  0  0  0  0
 12 15  1  0  0  0  0
 13 12  2  0  0  0  0
 14  5  1  0  0  0  0
 15  8  1  0  0  0  0
 16 25  1  0  0  0  0
 17 13  1  0  0  0  0
 18 30  1  0  0  0  0
 19  3  2  0  0  0  0
 20  9  2  0  0  0  0
 21  7  1  0  0  0  0
 22 17  1  0  0  0  0
 23 14  2  0  0  0  0
 24 14  1  0  0  0  0
 25 24  2  0  0  0  0
 26 23  1  0  0  0  0
 27 11  1  0  0  0  0
 28 11  1  0  0  0  0
 29 11  1  0  0  0  0
 30 31  1  0  0  0  0
 31 22  2  0  0  0  0
 32 17  2  0  0  0  0
 33 13  1  0  0  0  0
 34 32  1  0  0  0  0
 35 21  2  0  0  0  0
 36 21  1  0  0  0  0
 37 34  2  0  0  0  0
 38 33  1  0  0  0  0
 39 38  1  0  0  0  0
 40 39  1  0  0  0  0
 41 35  1  0  0  0  0
 42 36  2  0  0  0  0
 43 42  1  0  0  0  0
  8 10  1  0  0  0  0
 37 31  1  0  0  0  0
  6  5  1  0  0  0  0
 43 41  2  0  0  0  0
 16 26  2  0  0  0  0
M  END
>  <Mol Weight>
591.577

>  <Formula>
C32H28F3N3O5

>  <chembl_id>
CHEMBL7152

$$$$

  Mrv0541 06201412482D          

 35 37  0  0  0  0            999 V2000
    2.5870   -3.7990    0.0000 C   0  0  0  0  0  0  0  0  0  0  0  0
    1.8932   -3.3769    0.0000 C   0  0  0  0  0  0  0  0  0  0  0  0
    3.3100   -3.4020    0.0000 C   0  0  0  0  0  0  0  0  0  0  0  0
    2.5703   -4.6265    0.0000 C   0  0  0  0  0  0  0  0  0  0  0  0
    1.9058   -2.5452    0.0000 C   0  0  0  0  0  0  0  0  0  0  0  0
    3.3267   -2.5870    0.0000 C   0  0  0  0  0  0  0  0  0  0  0  0
    4.0163   -3.8283    0.0000 C   0  0  0  0  0  0  0  0  0  0  0  0
    1.8473   -5.0277    0.0000 C   0  0  0  0  0  0  0  0  0  0  0  0
    3.2766   -5.0528    0.0000 C   0  0  0  0  0  0  0  0  0  0  0  0
    2.5452   -6.2731    0.0000 C   0  0  0  0  0  0  0  0  0  0  0  0
   11.8775   -2.6121    0.0000 N   0  0  0  0  0  0  0  0  0  0  0  0
    4.7561   -2.6121    0.0000 C   0  0  0  0  0  0  0  0  0  0  0  0
    1.8347   -5.8468    0.0000 C   0  0  0  0  0  0  0  0  0  0  0  0
    3.2641   -5.8802    0.0000 C   0  0  0  0  0  0  0  0  0  0  0  0
    4.7518   -3.4270    0.0000 C   0  0  0  0  0  0  0  0  0  0  0  0
    4.0539   -2.1858    0.0000 C   0  0  0  0  0  0  0  0  0  0  0  0
    2.5326   -7.1132    0.0000 I   0  0  0  0  0  0  0  0  0  0  0  0
    1.1577   -3.7739    0.0000 C   0  0  0  0  0  0  0  0  0  0  0  0
    5.4707   -2.2109    0.0000 O   0  0  0  0  0  0  0  0  0  0  0  0
    1.1911   -2.0980    0.0000 C   0  0  0  0  0  0  0  0  0  0  0  0
    2.6246   -2.1482    0.0000 C   0  0  0  0  0  0  0  0  0  0  0  0
   11.1587   -2.2109    0.0000 C   0  0  0  0  0  0  0  0  0  0  0  0
   11.8859   -3.4396    0.0000 C   0  0  0  0  0  0  0  0  0  0  0  0
   12.5880   -2.1941    0.0000 C   0  0  0  0  0  0  0  0  0  0  0  0
    6.1728   -2.6329    0.0000 C   0  0  0  0  0  0  0  0  0  0  0  0
    1.1452   -4.5889    0.0000 C   0  0  0  0  0  0  0  0  0  0  0  0
   10.4482   -2.6329    0.0000 C   0  0  0  0  0  0  0  0  0  0  0  0
    6.9000   -2.2234    0.0000 C   0  0  0  0  0  0  0  0  0  0  0  0
    8.3168   -2.2359    0.0000 C   0  0  0  0  0  0  0  0  0  0  0  0
    9.0272   -2.6455    0.0000 C   0  0  0  0  0  0  0  0  0  0  0  0
    9.7419   -2.2317    0.0000 C   0  0  0  0  0  0  0  0  0  0  0  0
    7.6021   -2.6372    0.0000 C   0  0  0  0  0  0  0  0  0  0  0  0
    2.6455   -1.3207    0.0000 C   0  0  0  0  0  0  0  0  0  0  0  0
    1.2078   -1.2831    0.0000 C   0  0  0  0  0  0  0  0  0  0  0  0
    1.9350   -0.8902    0.0000 C   0  0  0  0  0  0  0  0  0  0  0  0
  2  1  2  0  0  0  0
  3  1  1  0  0  0  0
  4  1  1  0  0  0  0
  5  2  1  0  0  0  0
  6  3  1  0  0  0  0
  7  3  2  0  0  0  0
  8  4  2  0  0  0  0
  9  4  1  0  0  0  0
 10 14  1  0  0  0  0
 11 22  1  0  0  0  0
 12 15  2  0  0  0  0
 13  8  1  0  0  0  0
 14  9  2  0  0  0  0
 15  7  1  0  0  0  0
 16  6  2  0  0  0  0
 17 10  1  0  0  0  0
 18  2  1  0  0  0  0
 19 12  1  0  0  0  0
 20  5  2  0  0  0  0
 21  5  1  0  0  0  0
 22 27  1  0  0  0  0
 23 11  1  0  0  0  0
 24 11  1  0  0  0  0
 25 19  1  0  0  0  0
 26 18  1  0  0  0  0
 27 31  1  0  0  0  0
 28 25  1  0  0  0  0
 29 32  1  0  0  0  0
 30 29  1  0  0  0  0
 31 30  1  0  0  0  0
 32 28  1  0  0  0  0
 33 21  2  0  0  0  0
 34 20  1  0  0  0  0
 35 33  1  0  0  0  0
 10 13  2  0  0  0  0
 12 16  1  0  0  0  0
 35 34  2  0  0  0  0
M  END
>  <Mol Weight>
581.5706

>  <Formula>
C32H40INO

>  <chembl_id>
CHEMBL6718

$$$$

  Mrv0541 06201412482D          

 39 42  0  0  1  0            999 V2000
    1.5917   -3.2917    0.0000 C   0  0  2  0  0  0  0  0  0  0  0  0
    2.3042   -3.7000    0.0000 C   0  0  0  0  0  0  0  0  0  0  0  0
    3.0167   -3.2792    0.0000 N   0  0  0  0  0  0  0  0  0  0  0  0
    0.0792   -3.9125    0.0000 S   0  0  0  0  0  0  0  0  0  0  0  0
    8.0292   -3.8250    0.0000 C   0  0  0  0  0  0  0  0  0  0  0  0
    0.8792   -3.7042    0.0000 N   0  0  0  0  0  0  0  0  0  0  0  0
    8.8500   -3.8250    0.0000 C   0  0  0  0  0  0  0  0  0  0  0  0
    7.7792   -3.0292    0.0000 S   0  0  0  0  0  0  0  0  0  0  0  0
    3.7667   -3.6125    0.0000 C   0  0  2  0  0  0  0  0  0  0  0  0
    1.5875   -2.4625    0.0000 C   0  0  0  0  0  0  0  0  0  0  0  0
    7.3542   -4.3000    0.0000 C   0  0  0  0  0  0  0  0  0  0  0  0
    4.4792   -4.0250    0.0000 C   0  0  0  0  0  0  0  0  0  0  0  0
    6.7000   -3.8000    0.0000 C   0  0  0  0  0  0  0  0  0  0  0  0
    6.9625   -3.0250    0.0000 C   0  0  0  0  0  0  0  0  0  0  0  0
    5.1917   -3.6042    0.0000 N   0  0  0  0  0  0  0  0  0  0  0  0
    9.4292   -3.2375    0.0000 N   0  0  0  0  0  0  0  0  0  0  0  0
    0.0667   -4.9417    0.0000 O   0  0  0  0  0  0  0  0  0  0  0  0
    0.1000   -3.1292    0.0000 O   0  0  0  0  0  0  0  0  0  0  0  0
    2.3042   -4.5250    0.0000 O   0  0  0  0  0  0  0  0  0  0  0  0
    4.4750   -4.8500    0.0000 O   0  0  0  0  0  0  0  0  0  0  0  0
    2.1667   -1.8750    0.0000 C   0  0  0  0  0  0  0  0  0  0  0  0
    0.8167   -2.1542    0.0000 C   0  0  0  0  0  0  0  0  0  0  0  0
    5.9042   -4.0167    0.0000 C   0  0  0  0  0  0  0  0  0  0  0  0
    9.4292   -4.4042    0.0000 N   0  0  0  0  0  0  0  0  0  0  0  0
    3.1000   -2.4667    0.0000 C   0  0  0  0  0  0  0  0  0  0  0  0
   10.2542   -3.2375    0.0000 N   0  0  0  0  0  0  0  0  0  0  0  0
   -0.7458   -3.9125    0.0000 C   0  0  0  0  0  0  0  0  0  0  0  0
    4.3167   -2.9875    0.0000 C   0  0  0  0  0  0  0  0  0  0  0  0
    3.9000   -2.2917    0.0000 C   0  0  0  0  0  0  0  0  0  0  0  0
    1.9500   -1.0792    0.0000 C   0  0  0  0  0  0  0  0  0  0  0  0
    0.7125   -1.3375    0.0000 C   0  0  0  0  0  0  0  0  0  0  0  0
    0.1792   -2.6625    0.0000 C   0  0  0  0  0  0  0  0  0  0  0  0
    2.9667   -2.0917    0.0000 C   0  0  0  0  0  0  0  0  0  0  0  0
   -0.0500   -1.0250    0.0000 C   0  0  0  0  0  0  0  0  0  0  0  0
   -0.5875   -2.3542    0.0000 C   0  0  0  0  0  0  0  0  0  0  0  0
    3.5542   -1.5042    0.0000 C   0  0  0  0  0  0  0  0  0  0  0  0
    2.5292   -0.4917    0.0000 C   0  0  0  0  0  0  0  0  0  0  0  0
   -0.7083   -1.5292    0.0000 C   0  0  0  0  0  0  0  0  0  0  0  0
    3.3375   -0.7042    0.0000 C   0  0  0  0  0  0  0  0  0  0  0  0
  2  1  1  0  0  0  0
  3  2  1  0  0  0  0
  4  6  1  0  0  0  0
  5 11  2  0  0  0  0
  6  1  1  0  0  0  0
  7  5  1  0  0  0  0
  8 14  1  0  0  0  0
  9  3  1  0  0  0  0
  1 10  1  6  0  0  0
 11 13  1  0  0  0  0
  9 12  1  1  0  0  0
 13 23  1  0  0  0  0
 14 13  2  0  0  0  0
 15 12  1  0  0  0  0
 16  7  1  0  0  0  0
 17  4  2  0  0  0  0
 18  4  2  0  0  0  0
 19  2  2  0  0  0  0
 20 12  2  0  0  0  0
 21 10  1  0  0  0  0
 22 10  1  0  0  0  0
 23 15  1  0  0  0  0
 24  7  2  0  0  0  0
 25  3  1  0  0  0  0
 26 16  1  0  0  0  0
 27  4  1  0  0  0  0
 28  9  1  0  0  0  0
 29 25  1  0  0  0  0
 30 21  1  0  0  0  0
 31 22  2  0  0  0  0
 32 22  1  0  0  0  0
 33 21  2  0  0  0  0
 34 31  1  0  0  0  0
 35 32  2  0  0  0  0
 36 33  1  0  0  0  0
 37 30  2  0  0  0  0
 38 35  1  0  0  0  0
 39 36  2  0  0  0  0
 29 28  1  0  0  0  0
 38 34  2  0  0  0  0
 39 37  1  0  0  0  0
  8  5  1  0  0  0  0
M  END
>  <Mol Weight>
568.711

>  <Formula>
C27H32N6O4S2

>  <chembl_id>
CHEMBL7292

$$$$

  Mrv0541 06201412482D          

 35 38  0  0  0  0            999 V2000
   12.3768   -3.7933    0.0000 N   0  0  0  0  0  0  0  0  0  0  0  0
   12.1114   -4.6074    0.0000 C   0  0  0  0  0  0  0  0  0  0  0  0
    3.9880   -4.7077    0.0000 N   0  0  0  0  0  0  0  0  0  0  0  0
    3.5101   -5.3802    0.0000 C   0  0  0  0  0  0  0  0  0  0  0  0
   11.2619   -4.6074    0.0000 N   0  0  0  0  0  0  0  0  0  0  0  0
   11.6984   -3.2978    0.0000 C   0  0  0  0  0  0  0  0  0  0  0  0
    4.7667   -4.9731    0.0000 C   0  0  0  0  0  0  0  0  0  0  0  0
    3.9880   -6.0410    0.0000 O   0  0  0  0  0  0  0  0  0  0  0  0
   10.9964   -3.7933    0.0000 O   0  0  0  0  0  0  0  0  0  0  0  0
    4.7667   -5.7932    0.0000 C   0  0  0  0  0  0  0  0  0  0  0  0
    0.2124   -5.3684    0.0000 C   0  0  0  0  0  0  0  0  0  0  0  0
    9.8106   -4.3774    0.0000 C   0  0  0  0  0  0  0  0  0  0  0  0
    9.0142   -4.6782    0.0000 C   0  0  0  0  0  0  0  0  0  0  0  0
   10.4655   -4.9083    0.0000 C   0  0  0  0  0  0  0  0  0  0  0  0
    2.6783   -5.3802    0.0000 C   0  0  0  0  0  0  0  0  0  0  0  0
    1.0324   -5.3802    0.0000 C   0  0  0  0  0  0  0  0  0  0  0  0
    8.2709   -4.1827    0.0000 C   0  0  0  0  0  0  0  0  0  0  0  0
   12.6069   -5.2917    0.0000 O   0  0  0  0  0  0  0  0  0  0  0  0
    5.4392   -4.4835    0.0000 C   0  0  0  0  0  0  0  0  0  0  0  0
   11.7043   -2.4483    0.0000 O   0  0  0  0  0  0  0  0  0  0  0  0
    7.5984   -4.6723    0.0000 C   0  0  0  0  0  0  0  0  0  0  0  0
    2.2713   -4.6605    0.0000 C   0  0  0  0  0  0  0  0  0  0  0  0
    2.2653   -6.0941    0.0000 C   0  0  0  0  0  0  0  0  0  0  0  0
    1.4512   -4.6605    0.0000 C   0  0  0  0  0  0  0  0  0  0  0  0
    1.4395   -6.0941    0.0000 C   0  0  0  0  0  0  0  0  0  0  0  0
    0.4307   -4.5838    0.0000 F   0  0  0  0  0  0  0  0  0  0  0  0
   -0.1947   -4.6605    0.0000 F   0  0  0  0  0  0  0  0  0  0  0  0
   -0.2064   -6.0764    0.0000 F   0  0  0  0  0  0  0  0  0  0  0  0
    6.1943   -4.8198    0.0000 O   0  0  0  0  0  0  0  0  0  0  0  0
    8.8195   -5.4569    0.0000 I   0  0  0  0  0  0  0  0  0  0  0  0
    6.8551   -4.3243    0.0000 C   0  0  0  0  0  0  0  0  0  0  0  0
    5.4392   -6.2710    0.0000 C   0  0  0  0  0  0  0  0  0  0  0  0
    8.1824   -3.3686    0.0000 C   0  0  0  0  0  0  0  0  0  0  0  0
    7.4332   -3.0323    0.0000 C   0  0  0  0  0  0  0  0  0  0  0  0
    6.7666   -3.5101    0.0000 C   0  0  0  0  0  0  0  0  0  0  0  0
  2  1  1  0  0  0  0
  3  7  1  0  0  0  0
  4  3  2  0  0  0  0
  5  2  1  0  0  0  0
  6  1  1  0  0  0  0
  7 19  1  0  0  0  0
  8 10  1  0  0  0  0
  9  6  1  0  0  0  0
 10  7  2  0  0  0  0
 11 16  1  0  0  0  0
 12 14  1  0  0  0  0
 13 12  2  0  0  0  0
 14  5  1  0  0  0  0
 15  4  1  0  0  0  0
 16 25  1  0  0  0  0
 17 13  1  0  0  0  0
 18  2  2  0  0  0  0
 19 29  1  0  0  0  0
 20  6  2  0  0  0  0
 21 17  1  0  0  0  0
 22 15  2  0  0  0  0
 23 15  1  0  0  0  0
 24 22  1  0  0  0  0
 25 23  2  0  0  0  0
 26 11  1  0  0  0  0
 27 11  1  0  0  0  0
 28 11  1  0  0  0  0
 29 31  1  0  0  0  0
 30 13  1  0  0  0  0
 31 21  2  0  0  0  0
 32 10  1  0  0  0  0
 33 17  2  0  0  0  0
 34 33  1  0  0  0  0
 35 34  2  0  0  0  0
  5  9  1  0  0  0  0
 31 35  1  0  0  0  0
  8  4  1  0  0  0  0
 16 24  2  0  0  0  0
M  END
>  <Mol Weight>
599.2979

>  <Formula>
C23H17F3IN3O5

>  <chembl_id>
CHEMBL7120

$$$$

  Mrv0541 06201412482D          

 48 53  0  0  0  0            999 V2000
    9.3583  -19.2750    0.0000 C   0  0  0  0  0  0  0  0  0  0  0  0
    9.3583  -20.1000    0.0000 C   0  0  1  0  0  0  0  0  0  0  0  0
   10.0704  -20.5083    0.0000 C   0  0  0  0  0  0  0  0  0  0  0  0
   10.0704  -18.8583    0.0000 C   0  0  0  0  0  0  0  0  0  0  0  0
    8.6445  -20.5135    0.0000 O   0  0  0  0  0  0  0  0  0  0  0  0
    9.6500  -21.2208    0.0000 C   0  0  0  0  0  0  0  0  0  0  0  0
   10.4750  -21.2208    0.0000 C   0  0  0  0  0  0  0  0  0  0  0  0
   10.7824  -19.2750    0.0000 C   0  0  1  0  0  0  0  0  0  0  0  0
   11.4945  -20.5093    0.0000 C   0  0  0  0  0  0  0  0  0  0  0  0
   12.2090  -20.0982    0.0000 C   0  0  0  0  0  0  0  0  0  0  0  0
   10.7750  -18.4500    0.0000 C   0  0  0  0  0  0  0  0  0  0  0  0
   12.2099  -19.2738    0.0000 C   0  0  1  0  0  0  0  0  0  0  0  0
   12.2087  -17.6194    0.0000 C   0  0  0  0  0  0  0  0  0  0  0  0
   11.4886  -18.0329    0.0000 C   0  0  0  0  0  0  0  0  0  0  0  0
   12.2042  -18.4458    0.0000 C   0  0  0  0  0  0  0  0  0  0  0  0
   12.9205  -18.8625    0.0000 C   0  0  1  0  0  0  0  0  0  0  0  0
   13.6314  -19.2794    0.0000 C   0  0  0  0  0  0  0  0  0  0  0  0
   14.3524  -18.8723    0.0000 C   0  0  0  0  0  0  0  0  0  0  0  0
   12.9125  -19.6875    0.0000 C   0  0  0  0  0  0  0  0  0  0  0  0
   14.3531  -18.0436    0.0000 C   0  0  2  0  0  0  0  0  0  0  0  0
   14.9734  -17.4981    0.0000 C   0  0  0  0  0  0  0  0  0  0  0  0
   14.6463  -16.7395    0.0000 C   0  0  0  0  0  0  0  0  0  0  0  0
   13.8239  -16.8163    0.0000 C   0  0  1  0  0  0  0  0  0  0  0  0
   13.2791  -16.1968    0.0000 C   0  0  0  0  0  0  0  0  0  0  0  0
   13.5432  -15.4153    0.0000 C   0  0  0  0  0  0  0  0  0  0  0  0
   12.4702  -16.3589    0.0000 C   0  0  0  0  0  0  0  0  0  0  0  0
   15.0625  -18.4542    0.0000 C   0  0  0  0  0  0  0  0  0  0  0  0
   15.7774  -18.0425    0.0000 O   0  0  0  0  0  0  0  0  0  0  0  0
   16.4914  -18.4557    0.0000 C   0  0  0  0  0  0  0  0  0  0  0  0
   14.3521  -15.2532    0.0000 O   0  0  0  0  0  0  0  0  0  0  0  0
   14.6162  -14.4716    0.0000 C   0  0  0  0  0  0  0  0  0  0  0  0
    7.9294  -20.1021    0.0000 C   0  0  0  0  0  0  0  0  0  0  0  0
    7.2155  -20.5156    0.0000 N   0  0  0  0  0  0  0  0  0  0  0  0
    7.9282  -19.2771    0.0000 O   0  0  0  0  0  0  0  0  0  0  0  0
    6.4589  -20.1838    0.0000 C   0  0  0  0  0  0  0  0  0  0  0  0
    5.9077  -20.7977    0.0000 C   0  0  0  0  0  0  0  0  0  0  0  0
    6.3213  -21.5116    0.0000 N   0  0  0  0  0  0  0  0  0  0  0  0
    7.1280  -21.3388    0.0000 C   0  0  0  0  0  0  0  0  0  0  0  0
    6.2845  -19.3774    0.0000 C   0  0  0  0  0  0  0  0  0  0  0  0
   15.0616  -19.2792    0.0000 O   0  0  0  0  0  0  0  0  0  0  0  0
   10.7834  -20.1000    0.0000 C   0  0  1  0  0  0  0  0  0  0  0  0
   10.7834  -20.9250    0.0000 H   0  0  0  0  0  0  0  0  0  0  0  0
   11.4924  -18.8593    0.0000 C   0  0  2  0  0  0  0  0  0  0  0  0
   11.7059  -19.6562    0.0000 H   0  0  0  0  0  0  0  0  0  0  0  0
   12.9262  -18.0339    0.0000 C   0  0  1  0  0  0  0  0  0  0  0  0
   12.9262  -17.2089    0.0000 H   0  0  0  0  0  0  0  0  0  0  0  0
   13.6427  -17.6222    0.0000 C   0  0  2  0  0  0  0  0  0  0  0  0
   13.6427  -18.4472    0.0000 H   0  0  0  0  0  0  0  0  0  0  0  0
 16 17  1  0  0  0  0
 17 18  1  0  0  0  0
 18 20  1  0  0  0  0
  8 43  1  0  0  0  0
 16 19  1  6  0  0  0
 47 20  1  0  0  0  0
 41  9  1  0  0  0  0
  9 10  1  0  0  0  0
 10 12  1  0  0  0  0
  2  5  1  1  0  0  0
  8 11  1  1  0  0  0
 20 21  1  0  0  0  0
 21 22  1  0  0  0  0
 22 23  1  0  0  0  0
 23 47  1  0  0  0  0
 43 12  1  0  0  0  0
 23 24  1  6  0  0  0
  1  2  1  0  0  0  0
 24 25  1  0  0  0  0
  3  6  1  0  0  0  0
 24 26  2  0  0  0  0
  1  4  1  0  0  0  0
 20 27  1  1  0  0  0
  3  7  1  0  0  0  0
 27 28  1  0  0  0  0
 43 14  1  0  0  0  0
 28 29  1  0  0  0  0
 12 16  1  0  0  0  0
 25 30  1  0  0  0  0
 45 13  1  0  0  0  0
 30 31  1  0  0  0  0
 13 14  1  0  0  0  0
  5 32  1  0  0  0  0
  8 41  1  0  0  0  0
 32 33  1  0  0  0  0
 12 15  1  1  0  0  0
 32 34  2  0  0  0  0
 33 35  1  0  0  0  0
 45 16  1  0  0  0  0
  2  3  1  0  0  0  0
  3 41  1  0  0  0  0
  8  4  1  0  0  0  0
 35 36  2  0  0  0  0
 36 37  1  0  0  0  0
 37 38  2  0  0  0  0
 38 33  1  0  0  0  0
 35 39  1  0  0  0  0
 45 47  1  0  0  0  0
 27 40  2  0  0  0  0
 41 42  1  6  0  0  0
 43 44  1  6  0  0  0
 45 46  1  1  0  0  0
 47 48  1  6  0  0  0
M  END
>  <Mol Weight>
608.8509

>  <Formula>
C37H56N2O5

>  <chembl_id>
CHEMBL1163143

$$$$

  Mrv0541 06201412482D          

 39 42  0  0  1  0            999 V2000
    1.5917   -3.2917    0.0000 C   0  0  2  0  0  0  0  0  0  0  0  0
    2.3042   -3.7000    0.0000 C   0  0  0  0  0  0  0  0  0  0  0  0
    3.0167   -3.2792    0.0000 N   0  0  0  0  0  0  0  0  0  0  0  0
    0.0792   -3.9125    0.0000 S   0  0  0  0  0  0  0  0  0  0  0  0
    8.0292   -3.8250    0.0000 C   0  0  0  0  0  0  0  0  0  0  0  0
    0.8792   -3.7042    0.0000 N   0  0  0  0  0  0  0  0  0  0  0  0
    7.3542   -4.3000    0.0000 S   0  0  0  0  0  0  0  0  0  0  0  0
    8.8500   -3.8250    0.0000 C   0  0  0  0  0  0  0  0  0  0  0  0
    3.7667   -3.6125    0.0000 C   0  0  2  0  0  0  0  0  0  0  0  0
    1.5875   -2.4625    0.0000 C   0  0  0  0  0  0  0  0  0  0  0  0
    4.4792   -4.0250    0.0000 C   0  0  0  0  0  0  0  0  0  0  0  0
    7.7792   -3.0292    0.0000 C   0  0  0  0  0  0  0  0  0  0  0  0
    6.7000   -3.8000    0.0000 C   0  0  0  0  0  0  0  0  0  0  0  0
    5.1917   -3.6042    0.0000 N   0  0  0  0  0  0  0  0  0  0  0  0
    6.9625   -3.0250    0.0000 C   0  0  0  0  0  0  0  0  0  0  0  0
    9.4292   -3.2375    0.0000 N   0  0  0  0  0  0  0  0  0  0  0  0
    0.0667   -4.9417    0.0000 O   0  0  0  0  0  0  0  0  0  0  0  0
    0.1000   -3.1292    0.0000 O   0  0  0  0  0  0  0  0  0  0  0  0
    2.3042   -4.5250    0.0000 O   0  0  0  0  0  0  0  0  0  0  0  0
    4.4750   -4.8500    0.0000 O   0  0  0  0  0  0  0  0  0  0  0  0
    2.1667   -1.8750    0.0000 C   0  0  0  0  0  0  0  0  0  0  0  0
    0.8167   -2.1542    0.0000 C   0  0  0  0  0  0  0  0  0  0  0  0
    9.4292   -4.4042    0.0000 N   0  0  0  0  0  0  0  0  0  0  0  0
    5.9042   -4.0167    0.0000 C   0  0  0  0  0  0  0  0  0  0  0  0
    3.1000   -2.4667    0.0000 C   0  0  0  0  0  0  0  0  0  0  0  0
   10.2542   -3.2375    0.0000 N   0  0  0  0  0  0  0  0  0  0  0  0
   -0.7458   -3.9125    0.0000 C   0  0  0  0  0  0  0  0  0  0  0  0
    4.3167   -2.9875    0.0000 C   0  0  0  0  0  0  0  0  0  0  0  0
    3.9000   -2.2917    0.0000 C   0  0  0  0  0  0  0  0  0  0  0  0
    1.9500   -1.0792    0.0000 C   0  0  0  0  0  0  0  0  0  0  0  0
    0.7125   -1.3375    0.0000 C   0  0  0  0  0  0  0  0  0  0  0  0
    0.1792   -2.6625    0.0000 C   0  0  0  0  0  0  0  0  0  0  0  0
    2.9667   -2.0917    0.0000 C   0  0  0  0  0  0  0  0  0  0  0  0
   -0.0500   -1.0250    0.0000 C   0  0  0  0  0  0  0  0  0  0  0  0
   -0.5875   -2.3542    0.0000 C   0  0  0  0  0  0  0  0  0  0  0  0
    3.5542   -1.5042    0.0000 C   0  0  0  0  0  0  0  0  0  0  0  0
    2.5292   -0.4917    0.0000 C   0  0  0  0  0  0  0  0  0  0  0  0
   -0.7083   -1.5292    0.0000 C   0  0  0  0  0  0  0  0  0  0  0  0
    3.3375   -0.7042    0.0000 C   0  0  0  0  0  0  0  0  0  0  0  0
  2  1  1  0  0  0  0
  3  2  1  0  0  0  0
  4  6  1  0  0  0  0
  5  7  1  0  0  0  0
  6  1  1  0  0  0  0
  7 13  1  0  0  0  0
  8  5  1  0  0  0  0
  9  3  1  0  0  0  0
  1 10  1  6  0  0  0
  9 11  1  1  0  0  0
 12 15  1  0  0  0  0
 13 24  1  0  0  0  0
 14 11  1  0  0  0  0
 15 13  2  0  0  0  0
 16  8  1  0  0  0  0
 17  4  2  0  0  0  0
 18  4  2  0  0  0  0
 19  2  2  0  0  0  0
 20 11  2  0  0  0  0
 21 10  1  0  0  0  0
 22 10  1  0  0  0  0
 23  8  2  0  0  0  0
 24 14  1  0  0  0  0
 25  3  1  0  0  0  0
 26 16  1  0  0  0  0
 27  4  1  0  0  0  0
 28  9  1  0  0  0  0
 29 25  1  0  0  0  0
 30 21  1  0  0  0  0
 31 22  2  0  0  0  0
 32 22  1  0  0  0  0
 33 21  2  0  0  0  0
 34 31  1  0  0  0  0
 35 32  2  0  0  0  0
 36 33  1  0  0  0  0
 37 30  2  0  0  0  0
 38 35  1  0  0  0  0
 39 36  2  0  0  0  0
 29 28  1  0  0  0  0
 38 34  2  0  0  0  0
 39 37  1  0  0  0  0
 12  5  2  0  0  0  0
M  END
>  <Mol Weight>
568.711

>  <Formula>
C27H32N6O4S2

>  <chembl_id>
CHEMBL7440

$$$$

  Mrv0541 06201412482D          

 40 44  0  0  0  0            999 V2000
    5.1417    2.6083    0.0000 S   0  0  0  0  0  0  0  0  0  0  0  0
    0.8542    0.9583    0.0000 C   0  0  0  0  0  0  0  0  0  0  0  0
   -1.0750    1.4833    0.0000 S   0  0  0  0  0  0  0  0  0  0  0  0
    0.6792   -2.0917    0.0000 C   0  0  0  0  0  0  0  0  0  0  0  0
    0.9542   -3.4042    0.0000 N   0  0  0  0  0  0  0  0  0  0  0  0
   -0.4500    0.6833    0.0000 N   0  0  0  0  0  0  0  0  0  0  0  0
    1.5667    1.3750    0.0000 C   0  0  0  0  0  0  0  0  0  0  0  0
    1.2917   -2.6500    0.0000 C   0  0  0  0  0  0  0  0  0  0  0  0
    0.1000    1.2958    0.0000 O   0  0  0  0  0  0  0  0  0  0  0  0
    5.1417    3.4333    0.0000 C   0  0  0  0  0  0  0  0  0  0  0  0
   -0.0458   -0.0292    0.0000 C   0  0  0  0  0  0  0  0  0  0  0  0
    0.7667    0.1458    0.0000 C   0  0  0  0  0  0  0  0  0  0  0  0
    1.5667    2.2083    0.0000 N   0  0  0  0  0  0  0  0  0  0  0  0
    0.6792   -1.2667    0.0000 C   0  0  0  0  0  0  0  0  0  0  0  0
    0.1292   -3.3167    0.0000 O   0  0  0  0  0  0  0  0  0  0  0  0
    4.4292    3.8458    0.0000 C   0  0  0  0  0  0  0  0  0  0  0  0
   -0.0375   -0.8542    0.0000 C   0  0  0  0  0  0  0  0  0  0  0  0
   -0.0375   -2.5042    0.0000 C   0  0  0  0  0  0  0  0  0  0  0  0
    0.4417    1.6750    0.0000 C   0  0  0  0  0  0  0  0  0  0  0  0
   -0.3583    1.8958    0.0000 N   0  0  0  0  0  0  0  0  0  0  0  0
    3.0042    2.2083    0.0000 N   0  0  0  0  0  0  0  0  0  0  0  0
    2.2875    2.6125    0.0000 C   0  0  0  0  0  0  0  0  0  0  0  0
    4.3167    2.6125    0.0000 O   0  0  0  0  0  0  0  0  0  0  0  0
    5.9667    2.6083    0.0000 O   0  0  0  0  0  0  0  0  0  0  0  0
   -1.6625    2.0708    0.0000 O   0  0  0  0  0  0  0  0  0  0  0  0
   -1.0833    0.6583    0.0000 O   0  0  0  0  0  0  0  0  0  0  0  0
    3.7167    3.4333    0.0000 C   0  0  0  0  0  0  0  0  0  0  0  0
    5.1500    1.7833    0.0000 N   0  0  0  0  0  0  0  0  0  0  0  0
    2.2875    0.9625    0.0000 O   0  0  0  0  0  0  0  0  0  0  0  0
    3.7167    2.6125    0.0000 C   0  0  0  0  0  0  0  0  0  0  0  0
   -0.7500   -1.2667    0.0000 C   0  0  0  0  0  0  0  0  0  0  0  0
   -0.7500   -2.0917    0.0000 C   0  0  0  0  0  0  0  0  0  0  0  0
    2.1000   -2.4792    0.0000 N   0  0  0  0  0  0  0  0  0  0  0  0
    3.0000    3.8583    0.0000 C   0  0  0  0  0  0  0  0  0  0  0  0
    2.2875    3.4375    0.0000 C   0  0  0  0  0  0  0  0  0  0  0  0
   -1.8458    1.1708    0.0000 C   0  0  0  0  0  0  0  0  0  0  0  0
    5.8542    3.8458    0.0000 C   0  0  0  0  0  0  0  0  0  0  0  0
    4.4292    4.6667    0.0000 C   0  0  0  0  0  0  0  0  0  0  0  0
    5.8542    4.6667    0.0000 C   0  0  0  0  0  0  0  0  0  0  0  0
    5.1417    5.0875    0.0000 C   0  0  0  0  0  0  0  0  0  0  0  0
  2  7  1  0  0  0  0
  3 20  1  0  0  0  0
  4 14  1  0  0  0  0
  5  8  2  0  0  0  0
  6  9  1  0  0  0  0
  7 13  1  0  0  0  0
  8  4  1  0  0  0  0
  9  2  1  0  0  0  0
 10  1  1  0  0  0  0
 11 12  1  0  0  0  0
 12  2  1  0  0  0  0
 13 22  1  0  0  0  0
 14 17  2  0  0  0  0
 15 18  1  0  0  0  0
 16 10  1  0  0  0  0
 17 11  1  0  0  0  0
 18 32  1  0  0  0  0
  2 19  1  0  0  0  0
 20 19  1  0  0  0  0
 21 30  2  0  0  0  0
 22 35  2  0  0  0  0
 23  1  2  0  0  0  0
 24  1  2  0  0  0  0
 25  3  2  0  0  0  0
 26  3  2  0  0  0  0
 27 16  1  0  0  0  0
 28  1  1  0  0  0  0
 29  7  2  0  0  0  0
 30 27  1  0  0  0  0
 31 17  1  0  0  0  0
 32 31  2  0  0  0  0
 33  8  1  0  0  0  0
 34 27  2  0  0  0  0
 35 34  1  0  0  0  0
 36  3  1  0  0  0  0
 37 10  2  0  0  0  0
 38 16  2  0  0  0  0
 39 37  1  0  0  0  0
 40 39  2  0  0  0  0
 38 40  1  0  0  0  0
 22 21  1  0  0  0  0
 11  6  2  0  0  0  0
 18  4  2  0  0  0  0
  5 15  1  0  0  0  0
M  END
>  <Mol Weight>
585.612

>  <Formula>
C24H23N7O7S2

>  <chembl_id>
CHEMBL8018

$$$$

  Mrv0541 06201412482D          

 45 50  0  0  0  0            999 V2000
    9.5626  -19.1654    0.0000 C   0  0  0  0  0  0  0  0  0  0  0  0
    9.5614  -19.9918    0.0000 C   0  0  0  0  0  0  0  0  0  0  0  0
   10.2754  -20.4042    0.0000 C   0  0  0  0  0  0  0  0  0  0  0  0
   10.2736  -18.7531    0.0000 C   0  0  0  0  0  0  0  0  0  0  0  0
   10.9881  -19.1617    0.0000 C   0  0  0  0  0  0  0  0  0  0  0  0
   10.9869  -19.9939    0.0000 C   0  0  0  0  0  0  0  0  0  0  0  0
   11.7030  -20.4087    0.0000 C   0  0  0  0  0  0  0  0  0  0  0  0
   12.4248  -19.9959    0.0000 C   0  0  0  0  0  0  0  0  0  0  0  0
   13.1436  -20.4113    0.0000 C   0  0  0  0  0  0  0  0  0  0  0  0
   13.8642  -19.9956    0.0000 C   0  0  0  0  0  0  0  0  0  0  0  0
   13.8615  -19.1604    0.0000 C   0  0  0  0  0  0  0  0  0  0  0  0
   11.7059  -18.7440    0.0000 C   0  0  0  0  0  0  0  0  0  0  0  0
   12.4261  -19.1638    0.0000 C   0  0  0  0  0  0  0  0  0  0  0  0
   13.1423  -18.7475    0.0000 C   0  0  0  0  0  0  0  0  0  0  0  0
   12.9662  -17.9373    0.0000 N   0  0  0  0  0  0  0  0  0  0  0  0
   12.1417  -17.8563    0.0000 N   0  0  0  0  0  0  0  0  0  0  0  0
   13.3808  -17.2251    0.0000 C   0  0  0  0  0  0  0  0  0  0  0  0
   14.2048  -17.2280    0.0000 C   0  0  0  0  0  0  0  0  0  0  0  0
   14.6194  -16.5160    0.0000 N   0  0  0  0  0  0  0  0  0  0  0  0
   11.7007  -21.2327    0.0000 O   0  0  0  0  0  0  0  0  0  0  0  0
   15.4435  -16.5189    0.0000 C   0  0  0  0  0  0  0  0  0  0  0  0
   15.8580  -15.8067    0.0000 O   0  0  0  0  0  0  0  0  0  0  0  0
   15.8529  -17.2340    0.0000 C   0  0  0  0  0  0  0  0  0  0  0  0
   15.6237  -18.0195    0.0000 N   0  0  0  0  0  0  0  0  0  0  0  0
   16.3063  -18.4827    0.0000 C   0  0  0  0  0  0  0  0  0  0  0  0
   16.9571  -17.9753    0.0000 C   0  0  0  0  0  0  0  0  0  0  0  0
   16.6744  -17.2002    0.0000 C   0  0  0  0  0  0  0  0  0  0  0  0
   14.8483  -18.2985    0.0000 C   0  0  0  0  0  0  0  0  0  0  0  0
   17.6695  -18.3897    0.0000 N   0  0  0  0  0  0  0  0  0  0  0  0
   17.6668  -19.2138    0.0000 C   0  0  0  0  0  0  0  0  0  0  0  0
   18.3792  -19.6280    0.0000 C   0  0  0  0  0  0  0  0  0  0  0  0
   16.9519  -19.6234    0.0000 O   0  0  0  0  0  0  0  0  0  0  0  0
   18.6285  -20.4136    0.0000 N   0  0  0  0  0  0  0  0  0  0  0  0
   19.4535  -20.4174    0.0000 C   0  0  0  0  0  0  0  0  0  0  0  0
   19.7107  -19.6333    0.0000 C   0  0  0  0  0  0  0  0  0  0  0  0
   19.0437  -19.1475    0.0000 C   0  0  0  0  0  0  0  0  0  0  0  0
   18.1403  -21.0774    0.0000 C   0  0  0  0  0  0  0  0  0  0  0  0
   20.4949  -19.3801    0.0000 N   0  0  0  0  0  0  0  0  0  0  0  0
   21.2098  -19.7902    0.0000 C   0  0  0  0  0  0  0  0  0  0  0  0
   21.9226  -19.3767    0.0000 O   0  0  0  0  0  0  0  0  0  0  0  0
   21.2116  -20.6142    0.0000 O   0  0  0  0  0  0  0  0  0  0  0  0
   21.9261  -21.0248    0.0000 C   0  0  0  0  0  0  0  0  0  0  0  0
   21.9279  -21.8488    0.0000 C   0  0  0  0  0  0  0  0  0  0  0  0
   22.6389  -20.6111    0.0000 C   0  0  0  0  0  0  0  0  0  0  0  0
   22.6156  -21.4684    0.0000 C   0  0  0  0  0  0  0  0  0  0  0  0
 19 21  1  0  0  0  0
  8  9  2  0  0  0  0
 21 22  2  0  0  0  0
  4  1  2  0  0  0  0
 21 23  1  0  0  0  0
 24 25  1  0  0  0  0
  9 10  1  0  0  0  0
  5  6  2  0  0  0  0
 10 11  2  0  0  0  0
 11 14  1  0  0  0  0
 23 24  1  0  0  0  0
 25 26  2  0  0  0  0
 26 27  1  0  0  0  0
 27 23  2  0  0  0  0
 13 14  2  0  0  0  0
 24 28  1  0  0  0  0
 26 29  1  0  0  0  0
  2  3  2  0  0  0  0
 29 30  1  0  0  0  0
  3  6  1  0  0  0  0
 30 31  1  0  0  0  0
  5 12  1  0  0  0  0
 30 32  2  0  0  0  0
 33 34  1  0  0  0  0
  6  7  1  0  0  0  0
 14 15  1  0  0  0  0
 15 16  1  0  0  0  0
 16 12  2  0  0  0  0
 31 33  1  0  0  0  0
 34 35  2  0  0  0  0
 35 36  1  0  0  0  0
 36 31  2  0  0  0  0
  7  8  1  0  0  0  0
 33 37  1  0  0  0  0
 15 17  1  0  0  0  0
 35 38  1  0  0  0  0
 13 12  1  0  0  0  0
 38 39  1  0  0  0  0
 17 18  1  0  0  0  0
 39 40  2  0  0  0  0
  1  2  1  0  0  0  0
 39 41  1  0  0  0  0
 18 19  1  0  0  0  0
 41 42  1  0  0  0  0
 13  8  1  0  0  0  0
 42 43  1  0  0  0  0
  7 20  2  0  0  0  0
 42 44  1  0  0  0  0
  5  4  1  0  0  0  0
 42 45  1  0  0  0  0
M  END
>  <Mol Weight>
607.659

>  <Formula>
C33H33N7O5

>  <chembl_id>
CHEMBL1163204

$$$$

  Mrv0541 06201412482D          

 42 44  0  0  0  0            999 V2000
   -1.7128   -0.8765    0.0000 N   0  0  0  0  0  0  0  0  0  0  0  0
   -1.0082   -2.1196    0.0000 N   0  0  0  0  0  0  0  0  0  0  0  0
   -0.2864   -0.8765    0.0000 C   0  0  0  0  0  0  0  0  0  0  0  0
   -0.2864   -1.7014    0.0000 C   0  0  0  0  0  0  0  0  0  0  0  0
   -1.0082   -0.4640    0.0000 C   0  0  0  0  0  0  0  0  0  0  0  0
   -1.7128   -1.7072    0.0000 C   0  0  0  0  0  0  0  0  0  0  0  0
    0.4182   -0.4526    0.0000 N   0  0  0  0  0  0  0  0  0  0  0  0
    1.8904   -5.3964    0.0000 C   0  0  0  0  0  0  0  0  0  0  0  0
    2.5951   -4.1476    0.0000 C   0  0  0  0  0  0  0  0  0  0  0  0
    1.8790   -4.5714    0.0000 N   0  0  0  0  0  0  0  0  0  0  0  0
    0.4296   -2.1139    0.0000 N   0  0  0  0  0  0  0  0  0  0  0  0
   -0.2520   -5.8260    0.0000 C   0  0  0  0  0  0  0  0  0  0  0  0
    2.6123   -5.7974    0.0000 C   0  0  0  0  0  0  0  0  0  0  0  0
   -0.2692   -7.4301    0.0000 N   0  0  0  0  0  0  0  0  0  0  0  0
    1.1400   -0.8651    0.0000 C   0  0  0  0  0  0  0  0  0  0  0  0
    1.1686   -7.3613    0.0000 C   0  0  0  0  0  0  0  0  0  0  0  0
    2.5665   -0.8479    0.0000 N   0  0  0  0  0  0  0  0  0  0  0  0
    0.4698   -7.8082    0.0000 C   0  0  0  0  0  0  0  0  0  0  0  0
    2.5837   -3.3226    0.0000 C   0  0  0  0  0  0  0  0  0  0  0  0
    0.4640   -5.4021    0.0000 N   0  0  0  0  0  0  0  0  0  0  0  0
    1.8447   -0.4468    0.0000 C   0  0  0  0  0  0  0  0  0  0  0  0
   -0.1489   -9.9048    0.0000 C   0  0  0  0  0  0  0  0  0  0  0  0
    2.5779   -1.6728    0.0000 C   0  0  0  0  0  0  0  0  0  0  0  0
    1.1744   -5.8146    0.0000 C   0  0  0  0  0  0  0  0  0  0  0  0
    3.3055   -4.5543    0.0000 O   0  0  0  0  0  0  0  0  0  0  0  0
   -0.8363   -5.2417    0.0000 O   0  0  0  0  0  0  0  0  0  0  0  0
    3.3226   -5.3792    0.0000 O   0  0  0  0  0  0  0  0  0  0  0  0
    1.1229   -6.5364    0.0000 O   0  0  0  0  0  0  0  0  0  0  0  0
    1.1400   -1.6900    0.0000 C   0  0  0  0  0  0  0  0  0  0  0  0
    0.5901  -10.2829    0.0000 O   0  0  0  0  0  0  0  0  0  0  0  0
   -1.0082    0.3609    0.0000 N   0  0  0  0  0  0  0  0  0  0  0  0
    3.2997   -2.9044    0.0000 C   0  0  0  0  0  0  0  0  0  0  0  0
    1.8733   -2.9102    0.0000 C   0  0  0  0  0  0  0  0  0  0  0  0
    3.2883   -2.0795    0.0000 C   0  0  0  0  0  0  0  0  0  0  0  0
    1.8618   -2.0853    0.0000 C   0  0  0  0  0  0  0  0  0  0  0  0
   -2.4346   -2.1196    0.0000 N   0  0  0  0  0  0  0  0  0  0  0  0
    0.5042   -8.6331    0.0000 C   0  0  0  0  0  0  0  0  0  0  0  0
   -0.1833   -9.0799    0.0000 C   0  0  0  0  0  0  0  0  0  0  0  0
    2.6180   -6.6223    0.0000 O   0  0  0  0  0  0  0  0  0  0  0  0
    1.8962   -7.7394    0.0000 O   0  0  0  0  0  0  0  0  0  0  0  0
   -0.8421  -10.3517    0.0000 O   0  0  0  0  0  0  0  0  0  0  0  0
    3.2711   -0.4354    0.0000 C   0  0  0  0  0  0  0  0  0  0  0  0
  2  6  1  0  0  0  0
  3  5  2  0  0  0  0
  4  2  2  0  0  0  0
  5  1  1  0  0  0  0
  6  1  2  0  0  0  0
  7  3  1  0  0  0  0
  8 10  1  0  0  0  0
  9 19  1  0  0  0  0
 10  9  1  0  0  0  0
 11  4  1  0  0  0  0
 12 20  1  0  0  0  0
 13  8  1  0  0  0  0
 14 12  1  0  0  0  0
 15  7  2  0  0  0  0
 16 18  1  0  0  0  0
 17 21  1  0  0  0  0
 18 14  1  0  0  0  0
 19 33  2  0  0  0  0
 20 24  1  0  0  0  0
 21 15  1  0  0  0  0
 22 38  1  0  0  0  0
 23 17  1  0  0  0  0
 24  8  1  0  0  0  0
 25  9  2  0  0  0  0
 26 12  2  0  0  0  0
 27 13  2  0  0  0  0
 28 16  2  0  0  0  0
 29 11  2  0  0  0  0
 30 22  2  0  0  0  0
 31  5  1  0  0  0  0
 32 34  2  0  0  0  0
 33 35  1  0  0  0  0
 34 23  1  0  0  0  0
 35 23  2  0  0  0  0
 36  6  1  0  0  0  0
 37 18  1  0  0  0  0
 38 37  1  0  0  0  0
 39 13  1  0  0  0  0
 40 16  1  0  0  0  0
 41 22  1  0  0  0  0
 42 17  1  0  0  0  0
  4  3  1  0  0  0  0
 29 15  1  0  0  0  0
 32 19  1  0  0  0  0
M  END
>  <Mol Weight>
584.5413

>  <Formula>
C24H28N10O8

>  <chembl_id>
CHEMBL7382

$$$$

  Mrv0541 06201412482D          

 41 44  0  0  0  0            999 V2000
   -0.2348   -1.7873    0.0000 N   0  0  0  0  0  0  0  0  0  0  0  0
    0.4698   -3.0247    0.0000 N   0  0  0  0  0  0  0  0  0  0  0  0
    1.1916   -1.7759    0.0000 C   0  0  0  0  0  0  0  0  0  0  0  0
    1.1916   -2.6008    0.0000 C   0  0  0  0  0  0  0  0  0  0  0  0
    0.4698   -1.3635    0.0000 C   0  0  0  0  0  0  0  0  0  0  0  0
   -0.2348   -2.6123    0.0000 C   0  0  0  0  0  0  0  0  0  0  0  0
    1.8962   -1.3635    0.0000 N   0  0  0  0  0  0  0  0  0  0  0  0
    4.0730   -5.0526    0.0000 C   0  0  0  0  0  0  0  0  0  0  0  0
    1.9076   -3.0133    0.0000 N   0  0  0  0  0  0  0  0  0  0  0  0
    3.3570   -5.4709    0.0000 N   0  0  0  0  0  0  0  0  0  0  0  0
    2.6180   -1.7701    0.0000 C   0  0  0  0  0  0  0  0  0  0  0  0
   -0.2005   -6.7426    0.0000 C   0  0  0  0  0  0  0  0  0  0  0  0
    4.0902   -6.7025    0.0000 C   0  0  0  0  0  0  0  0  0  0  0  0
    4.0445   -1.7587    0.0000 N   0  0  0  0  0  0  0  0  0  0  0  0
    3.3570   -6.2958    0.0000 C   0  0  0  0  0  0  0  0  0  0  0  0
    4.0616   -4.2335    0.0000 C   0  0  0  0  0  0  0  0  0  0  0  0
    3.3226   -1.3463    0.0000 C   0  0  0  0  0  0  0  0  0  0  0  0
   -0.1890   -7.5676    0.0000 C   0  0  0  0  0  0  0  0  0  0  0  0
    4.0559   -2.5837    0.0000 C   0  0  0  0  0  0  0  0  0  0  0  0
    4.7834   -5.4537    0.0000 O   0  0  0  0  0  0  0  0  0  0  0  0
   -0.9223   -6.3302    0.0000 O   0  0  0  0  0  0  0  0  0  0  0  0
    4.8006   -6.2786    0.0000 O   0  0  0  0  0  0  0  0  0  0  0  0
    2.6180   -2.6008    0.0000 C   0  0  0  0  0  0  0  0  0  0  0  0
    0.4698   -0.5385    0.0000 N   0  0  0  0  0  0  0  0  0  0  0  0
    3.3512   -3.8210    0.0000 C   0  0  0  0  0  0  0  0  0  0  0  0
    4.7777   -3.8038    0.0000 C   0  0  0  0  0  0  0  0  0  0  0  0
    3.3398   -2.9961    0.0000 C   0  0  0  0  0  0  0  0  0  0  0  0
    4.7663   -2.9789    0.0000 C   0  0  0  0  0  0  0  0  0  0  0  0
   -0.9566   -3.0247    0.0000 N   0  0  0  0  0  0  0  0  0  0  0  0
    0.5042   -6.3244    0.0000 N   0  0  0  0  0  0  0  0  0  0  0  0
   -0.9051   -7.9800    0.0000 C   0  0  0  0  0  0  0  0  0  0  0  0
    0.5214   -7.9628    0.0000 C   0  0  0  0  0  0  0  0  0  0  0  0
    4.0960   -7.5274    0.0000 O   0  0  0  0  0  0  0  0  0  0  0  0
   -0.1833   -9.2116    0.0000 C   0  0  0  0  0  0  0  0  0  0  0  0
   -0.9051   -8.8049    0.0000 C   0  0  0  0  0  0  0  0  0  0  0  0
    0.5328   -8.7877    0.0000 C   0  0  0  0  0  0  0  0  0  0  0  0
   -0.1719  -10.0365    0.0000 Cl  0  0  0  0  0  0  0  0  0  0  0  0
    4.7605   -1.3405    0.0000 C   0  0  0  0  0  0  0  0  0  0  0  0
    2.6524   -6.7197    0.0000 C   0  0  0  0  0  0  0  0  0  0  0  0
    1.2260   -6.7254    0.0000 C   0  0  0  0  0  0  0  0  0  0  0  0
    1.9420   -6.3130    0.0000 C   0  0  0  0  0  0  0  0  0  0  0  0
  2  6  1  0  0  0  0
  3  5  2  0  0  0  0
  4  2  2  0  0  0  0
  5  1  1  0  0  0  0
  6  1  2  0  0  0  0
  7  3  1  0  0  0  0
  8 16  1  0  0  0  0
  9  4  1  0  0  0  0
 10  8  1  0  0  0  0
 11  7  2  0  0  0  0
 12 30  1  0  0  0  0
 13 15  1  0  0  0  0
 14 17  1  0  0  0  0
 15 10  1  0  0  0  0
 16 26  1  0  0  0  0
 17 11  1  0  0  0  0
 18 12  1  0  0  0  0
 19 14  1  0  0  0  0
 20  8  2  0  0  0  0
 21 12  2  0  0  0  0
 22 13  2  0  0  0  0
 23  9  2  0  0  0  0
 24  5  1  0  0  0  0
 25 27  1  0  0  0  0
 26 28  2  0  0  0  0
 27 19  2  0  0  0  0
 28 19  1  0  0  0  0
 29  6  1  0  0  0  0
 30 40  1  0  0  0  0
 31 18  2  0  0  0  0
 32 18  1  0  0  0  0
 33 13  1  0  0  0  0
 34 36  1  0  0  0  0
 35 31  1  0  0  0  0
 36 32  2  0  0  0  0
 37 34  1  0  0  0  0
 38 14  1  0  0  0  0
 39 15  1  0  0  0  0
 40 41  1  0  0  0  0
 41 39  1  0  0  0  0
  4  3  1  0  0  0  0
 23 11  1  0  0  0  0
 16 25  2  0  0  0  0
 34 35  2  0  0  0  0
M  END
>  <Mol Weight>
578.022

>  <Formula>
C27H28ClN9O4

>  <chembl_id>
CHEMBL7624

$$$$

  Mrv0541 06201412482D          

 38 41  0  0  0  0            999 V2000
    4.8417    2.2583    0.0000 S   0  0  0  0  0  0  0  0  0  0  0  0
    0.5625    0.6083    0.0000 C   0  0  0  0  0  0  0  0  0  0  0  0
   -1.3708    1.1333    0.0000 S   0  0  0  0  0  0  0  0  0  0  0  0
   -0.7458    0.3333    0.0000 N   0  0  0  0  0  0  0  0  0  0  0  0
    1.2750    1.0208    0.0000 C   0  0  0  0  0  0  0  0  0  0  0  0
   -0.1958    0.9458    0.0000 O   0  0  0  0  0  0  0  0  0  0  0  0
    4.8417    3.0833    0.0000 C   0  0  0  0  0  0  0  0  0  0  0  0
   -0.3375   -0.3792    0.0000 C   0  0  0  0  0  0  0  0  0  0  0  0
    0.4750   -0.2125    0.0000 C   0  0  0  0  0  0  0  0  0  0  0  0
    1.2750    1.8458    0.0000 N   0  0  0  0  0  0  0  0  0  0  0  0
    4.1292    3.4958    0.0000 C   0  0  0  0  0  0  0  0  0  0  0  0
    0.1417    1.3208    0.0000 C   0  0  0  0  0  0  0  0  0  0  0  0
   -0.6583    1.5375    0.0000 N   0  0  0  0  0  0  0  0  0  0  0  0
   -0.3333   -1.2042    0.0000 C   0  0  0  0  0  0  0  0  0  0  0  0
    2.7042    1.8458    0.0000 N   0  0  0  0  0  0  0  0  0  0  0  0
    1.9917    2.2583    0.0000 C   0  0  0  0  0  0  0  0  0  0  0  0
    0.3792   -2.4500    0.0000 C   0  0  0  0  0  0  0  0  0  0  0  0
    0.3792   -1.6167    0.0000 C   0  0  0  0  0  0  0  0  0  0  0  0
    5.6667    2.2583    0.0000 O   0  0  0  0  0  0  0  0  0  0  0  0
    4.0167    2.2583    0.0000 O   0  0  0  0  0  0  0  0  0  0  0  0
   -1.3750    0.3083    0.0000 O   0  0  0  0  0  0  0  0  0  0  0  0
   -1.9583    1.7208    0.0000 O   0  0  0  0  0  0  0  0  0  0  0  0
    3.4167    3.0833    0.0000 C   0  0  0  0  0  0  0  0  0  0  0  0
    4.8542    1.4333    0.0000 N   0  0  0  0  0  0  0  0  0  0  0  0
   -0.3333   -2.8625    0.0000 C   0  0  0  0  0  0  0  0  0  0  0  0
    1.9917    0.6083    0.0000 O   0  0  0  0  0  0  0  0  0  0  0  0
    3.4167    2.2583    0.0000 C   0  0  0  0  0  0  0  0  0  0  0  0
   -1.0458   -1.6250    0.0000 C   0  0  0  0  0  0  0  0  0  0  0  0
   -1.0458   -2.4500    0.0000 C   0  0  0  0  0  0  0  0  0  0  0  0
    2.7042    3.4958    0.0000 C   0  0  0  0  0  0  0  0  0  0  0  0
    1.1000   -2.8625    0.0000 N   0  0  0  0  0  0  0  0  0  0  0  0
    1.9917    3.0833    0.0000 C   0  0  0  0  0  0  0  0  0  0  0  0
   -2.1375    0.8208    0.0000 C   0  0  0  0  0  0  0  0  0  0  0  0
   -0.3333   -3.6875    0.0000 Cl  0  0  0  0  0  0  0  0  0  0  0  0
    5.5625    3.4958    0.0000 C   0  0  0  0  0  0  0  0  0  0  0  0
    4.1292    4.3250    0.0000 C   0  0  0  0  0  0  0  0  0  0  0  0
    4.8417    4.7292    0.0000 C   0  0  0  0  0  0  0  0  0  0  0  0
    5.5625    4.3167    0.0000 C   0  0  0  0  0  0  0  0  0  0  0  0
  2  5  1  0  0  0  0
  3 13  1  0  0  0  0
  4  6  1  0  0  0  0
  5 10  1  0  0  0  0
  6  2  1  0  0  0  0
  7  1  1  0  0  0  0
  8  9  1  0  0  0  0
  9  2  1  0  0  0  0
 10 16  1  0  0  0  0
 11  7  1  0  0  0  0
  2 12  1  0  0  0  0
 13 12  1  0  0  0  0
 14  8  1  0  0  0  0
 15 27  2  0  0  0  0
 16 32  2  0  0  0  0
 17 18  1  0  0  0  0
 18 14  2  0  0  0  0
 19  1  2  0  0  0  0
 20  1  2  0  0  0  0
 21  3  2  0  0  0  0
 22  3  2  0  0  0  0
 23 11  1  0  0  0  0
 24  1  1  0  0  0  0
 25 29  1  0  0  0  0
 26  5  2  0  0  0  0
 27 23  1  0  0  0  0
 28 14  1  0  0  0  0
 29 28  2  0  0  0  0
 30 23  2  0  0  0  0
 31 17  1  0  0  0  0
 32 30  1  0  0  0  0
 33  3  1  0  0  0  0
 34 25  1  0  0  0  0
 35  7  2  0  0  0  0
 36 11  2  0  0  0  0
 37 38  2  0  0  0  0
 38 35  1  0  0  0  0
 36 37  1  0  0  0  0
 15 16  1  0  0  0  0
  8  4  2  0  0  0  0
 17 25  2  0  0  0  0
M  END
>  <Mol Weight>
579.048

>  <Formula>
C23H23ClN6O6S2

>  <chembl_id>
CHEMBL7626

$$$$

  Mrv0541 06201412482D          

 46 50  0  0  1  0            999 V2000
    7.3987   -5.5678    0.0000 C   0  0  1  0  0  0  0  0  0  0  0  0
    6.6855   -5.9724    0.0000 C   0  0  1  0  0  0  0  0  0  0  0  0
    5.2675   -5.9681    0.0000 C   0  0  2  0  0  0  0  0  0  0  0  0
    8.8376   -4.7670    0.0000 C   0  0  1  0  0  0  0  0  0  0  0  0
    8.1327   -4.3458    0.0000 C   0  0  1  0  0  0  0  0  0  0  0  0
    7.4195   -4.7462    0.0000 C   0  0  1  0  0  0  0  0  0  0  0  0
    5.9807   -5.5553    0.0000 C   0  0  1  0  0  0  0  0  0  0  0  0
    5.2592   -6.7939    0.0000 C   0  0  2  0  0  0  0  0  0  0  0  0
    4.5543   -7.1985    0.0000 C   0  0  0  0  0  0  0  0  0  0  0  0
    2.4190   -6.7939    0.0000 C   0  0  0  0  0  0  0  0  0  0  0  0
    8.3121   -3.5451    0.0000 C   0  0  1  0  0  0  0  0  0  0  0  0
    3.8453   -6.7939    0.0000 C   0  0  1  0  0  0  0  0  0  0  0  0
    9.5507   -5.1799    0.0000 C   0  0  0  0  0  0  0  0  0  0  0  0
    3.1322   -7.2068    0.0000 O   0  0  0  0  0  0  0  0  0  0  0  0
    1.7058   -7.2068    0.0000 C   0  0  0  0  0  0  0  0  0  0  0  0
    8.1077   -5.9849    0.0000 C   0  0  0  0  0  0  0  0  0  0  0  0
    6.6938   -6.7981    0.0000 C   0  0  0  0  0  0  0  0  0  0  0  0
    8.8250   -5.5928    0.0000 C   0  0  0  0  0  0  0  0  0  0  0  0
    9.4506   -4.2290    0.0000 C   0  0  0  0  0  0  0  0  0  0  0  0
    6.7105   -4.3208    0.0000 C   0  0  0  0  0  0  0  0  0  0  0  0
    4.5543   -5.5469    0.0000 C   0  0  0  0  0  0  0  0  0  0  0  0
    5.9849   -4.7295    0.0000 C   0  0  0  0  0  0  0  0  0  0  0  0
    5.9724   -7.2068    0.0000 C   0  0  0  0  0  0  0  0  0  0  0  0
    9.1336   -3.4700    0.0000 C   0  0  0  0  0  0  0  0  0  0  0  0
    7.7240   -2.9570    0.0000 C   0  0  0  0  0  0  0  0  0  0  0  0
    0.2795   -7.2068    0.0000 C   0  0  0  0  0  0  0  0  0  0  0  0
    0.9926   -6.7939    0.0000 C   0  0  0  0  0  0  0  0  0  0  0  0
    3.8453   -5.9681    0.0000 C   0  0  0  0  0  0  0  0  0  0  0  0
    2.4190   -5.9681    0.0000 O   0  0  0  0  0  0  0  0  0  0  0  0
    9.5507   -6.0057    0.0000 O   0  0  0  0  0  0  0  0  0  0  0  0
    0.2795   -8.0326    0.0000 O   0  0  0  0  0  0  0  0  0  0  0  0
    7.9367   -2.1562    0.0000 C   0  0  0  0  0  0  0  0  0  0  0  0
    7.3987   -6.3935    0.0000 C   0  0  0  0  0  0  0  0  0  0  0  0
   10.2639   -4.7587    0.0000 O   0  0  0  0  0  0  0  0  0  0  0  0
    6.6855   -5.1466    0.0000 C   0  0  0  0  0  0  0  0  0  0  0  0
    5.2592   -5.1424    0.0000 C   0  0  0  0  0  0  0  0  0  0  0  0
   -0.4379   -6.7939    0.0000 O   0  0  0  0  0  0  0  0  0  0  0  0
    4.1331   -7.9117    0.0000 C   0  0  0  0  0  0  0  0  0  0  0  0
    4.7670   -7.9993    0.0000 C   0  0  0  0  0  0  0  0  0  0  0  0
    1.1178   -7.7866    0.0000 C   0  0  0  0  0  0  0  0  0  0  0  0
    2.1145   -7.9200    0.0000 C   0  0  0  0  0  0  0  0  0  0  0  0
    6.9233   -3.1697    0.0000 C   0  0  0  0  0  0  0  0  0  0  0  0
    7.4112   -3.9204    0.0000 H   0  0  0  0  0  0  0  0  0  0  0  0
    8.1244   -5.1716    0.0000 H   0  0  0  0  0  0  0  0  0  0  0  0
    5.9724   -6.3810    0.0000 H   0  0  0  0  0  0  0  0  0  0  0  0
    5.2592   -7.6114    0.0000 H   0  0  0  0  0  0  0  0  0  0  0  0
  2  1  1  0  0  0  0
  3  7  1  0  0  0  0
  4 18  1  0  0  0  0
  5  6  1  0  0  0  0
  6  1  1  0  0  0  0
  7  2  1  0  0  0  0
  8 23  1  0  0  0  0
  9  8  1  0  0  0  0
 10 14  1  0  0  0  0
 11  5  1  0  0  0  0
 12  9  1  0  0  0  0
  4 13  1  1  0  0  0
 12 14  1  1  0  0  0
 15 10  1  0  0  0  0
 16  1  1  0  0  0  0
 17  2  1  0  0  0  0
 18 16  1  0  0  0  0
 19  4  1  0  0  0  0
 20  6  1  0  0  0  0
 21  3  1  0  0  0  0
 22 20  1  0  0  0  0
 23 17  1  0  0  0  0
 24 11  1  0  0  0  0
 11 25  1  6  0  0  0
 26 27  1  0  0  0  0
 27 15  1  0  0  0  0
 28 21  1  0  0  0  0
 29 10  2  0  0  0  0
 30 13  2  0  0  0  0
 31 26  2  0  0  0  0
 32 25  2  0  0  0  0
  1 33  1  6  0  0  0
 34 13  1  0  0  0  0
  2 35  1  1  0  0  0
  3 36  1  1  0  0  0
 37 26  1  0  0  0  0
  9 38  1  0  0  0  0
  9 39  1  0  0  0  0
 40 15  1  0  0  0  0
 41 15  1  0  0  0  0
 42 25  1  0  0  0  0
  6 43  1  1  0  0  0
  5 44  1  6  0  0  0
  7 45  1  6  0  0  0
  8 46  1  6  0  0  0
  5  4  1  0  0  0  0
  7 22  1  0  0  0  0
 19 24  1  0  0  0  0
  3  8  1  0  0  0  0
 28 12  1  0  0  0  0
M  END
>  <Mol Weight>
584.8262

>  <Formula>
C36H56O6

>  <chembl_id>
CHEMBL7365

$$$$

  Mrv0541 06201412482D          

 42 45  0  0  1  0            999 V2000
    4.3375   -2.8292    0.0000 N   0  0  0  0  0  0  0  0  0  0  0  0
    0.3000    1.3458    0.0000 S   0  0  0  0  0  0  0  0  0  0  0  0
    3.6167   -3.2417    0.0000 C   0  0  0  0  0  0  0  0  0  0  0  0
    2.9167   -2.0000    0.0000 N   0  0  0  0  0  0  0  0  0  0  0  0
    0.3042   -0.3042    0.0000 C   0  0  0  0  0  0  0  0  0  0  0  0
    3.2875   -0.6917    0.0000 N   0  0  0  0  0  0  0  0  0  0  0  0
    2.4417   -0.7250    0.0000 C   0  0  0  0  0  0  0  0  0  0  0  0
    1.0167   -0.7167    0.0000 C   0  0  0  0  0  0  0  0  0  0  0  0
    5.0875   -3.1667    0.0000 C   0  0  2  0  0  0  0  0  0  0  0  0
    0.3042    0.5208    0.0000 C   0  0  0  0  0  0  0  0  0  0  0  0
    3.5750   -1.4792    0.0000 C   0  0  0  0  0  0  0  0  0  0  0  0
    1.7292   -0.3042    0.0000 N   0  0  0  0  0  0  0  0  0  0  0  0
    2.2167   -1.5292    0.0000 C   0  0  0  0  0  0  0  0  0  0  0  0
    2.9125   -2.8250    0.0000 C   0  0  1  0  0  0  0  0  0  0  0  0
    5.3000   -3.9625    0.0000 C   0  0  0  0  0  0  0  0  0  0  0  0
    4.4250   -2.0042    0.0000 C   0  0  0  0  0  0  0  0  0  0  0  0
    5.6417   -2.5542    0.0000 C   0  0  0  0  0  0  0  0  0  0  0  0
    5.2292   -1.8417    0.0000 C   0  0  2  0  0  0  0  0  0  0  0  0
    1.2875    1.5500    0.0000 O   0  0  0  0  0  0  0  0  0  0  0  0
   -0.5875    1.6125    0.0000 O   0  0  0  0  0  0  0  0  0  0  0  0
    3.6167   -4.0667    0.0000 O   0  0  0  0  0  0  0  0  0  0  0  0
    1.0167   -1.5417    0.0000 O   0  0  0  0  0  0  0  0  0  0  0  0
    0.2917    2.1708    0.0000 O   0  0  0  0  0  0  0  0  0  0  0  0
    6.0917   -4.1792    0.0000 O   0  0  0  0  0  0  0  0  0  0  0  0
    5.6417   -1.1250    0.0000 O   0  0  0  0  0  0  0  0  0  0  0  0
    4.7125   -4.5417    0.0000 O   0  0  0  0  0  0  0  0  0  0  0  0
   -0.4083   -0.7125    0.0000 C   0  0  0  0  0  0  0  0  0  0  0  0
    6.4625   -1.1125    0.0000 C   0  0  0  0  0  0  0  0  0  0  0  0
   -0.4083    0.9375    0.0000 C   0  0  0  0  0  0  0  0  0  0  0  0
    2.1917   -3.2292    0.0000 C   0  0  0  0  0  0  0  0  0  0  0  0
    6.8792   -1.8250    0.0000 C   0  0  0  0  0  0  0  0  0  0  0  0
    6.8625   -0.3917    0.0000 C   0  0  0  0  0  0  0  0  0  0  0  0
    1.4792   -2.8125    0.0000 C   0  0  0  0  0  0  0  0  0  0  0  0
   -0.6625   -3.2125    0.0000 C   0  0  0  0  0  0  0  0  0  0  0  0
   -1.1208   -0.3042    0.0000 C   0  0  0  0  0  0  0  0  0  0  0  0
    0.0542   -2.8042    0.0000 C   0  0  0  0  0  0  0  0  0  0  0  0
    0.7625   -3.2167    0.0000 C   0  0  0  0  0  0  0  0  0  0  0  0
   -1.1208    0.5208    0.0000 C   0  0  0  0  0  0  0  0  0  0  0  0
   -1.3750   -2.7917    0.0000 C   0  0  0  0  0  0  0  0  0  0  0  0
    7.7042   -1.8125    0.0000 C   0  0  0  0  0  0  0  0  0  0  0  0
    7.6875   -0.3792    0.0000 C   0  0  0  0  0  0  0  0  0  0  0  0
    8.1125   -1.0917    0.0000 C   0  0  0  0  0  0  0  0  0  0  0  0
  2 10  1  0  0  0  0
  3  1  1  0  0  0  0
  4 14  1  0  0  0  0
  5  8  1  0  0  0  0
  6 11  2  0  0  0  0
  7 13  2  0  0  0  0
  8 12  1  0  0  0  0
  9  1  1  0  0  0  0
 10  5  2  0  0  0  0
 11  4  1  0  0  0  0
 12  7  1  0  0  0  0
 13  4  1  0  0  0  0
 14  3  1  0  0  0  0
  9 15  1  1  0  0  0
 16  1  1  0  0  0  0
 17  9  1  0  0  0  0
 18 16  1  0  0  0  0
 19  2  2  0  0  0  0
 20  2  2  0  0  0  0
 21  3  2  0  0  0  0
 22  8  2  0  0  0  0
 23  2  1  0  0  0  0
 24 15  2  0  0  0  0
 18 25  1  1  0  0  0
 26 15  1  0  0  0  0
 27  5  1  0  0  0  0
 28 25  1  0  0  0  0
 29 10  1  0  0  0  0
 14 30  1  6  0  0  0
 31 28  2  0  0  0  0
 32 28  1  0  0  0  0
 33 30  1  0  0  0  0
 34 36  1  0  0  0  0
 35 27  2  0  0  0  0
 36 37  1  0  0  0  0
 37 33  1  0  0  0  0
 38 35  1  0  0  0  0
 39 34  1  0  0  0  0
 40 31  1  0  0  0  0
 41 32  2  0  0  0  0
 42 41  1  0  0  0  0
 18 17  1  0  0  0  0
  7  6  1  0  0  0  0
 42 40  2  0  0  0  0
 38 29  2  0  0  0  0
M  END
>  <Mol Weight>
598.667

>  <Formula>
C29H34N4O8S

>  <chembl_id>
CHEMBL7762

$$$$

  Mrv0541 06201412482D          

 40 43  0  0  0  0            999 V2000
   -0.6703   -1.2719    0.0000 N   0  0  0  0  0  0  0  0  0  0  0  0
    0.0401   -2.5151    0.0000 N   0  0  0  0  0  0  0  0  0  0  0  0
    0.7562   -1.2719    0.0000 C   0  0  0  0  0  0  0  0  0  0  0  0
    0.7562   -2.0968    0.0000 C   0  0  0  0  0  0  0  0  0  0  0  0
    0.0401   -0.8594    0.0000 C   0  0  0  0  0  0  0  0  0  0  0  0
   -0.6703   -2.1026    0.0000 C   0  0  0  0  0  0  0  0  0  0  0  0
    1.4667   -0.8480    0.0000 N   0  0  0  0  0  0  0  0  0  0  0  0
    3.6323   -4.5432    0.0000 C   0  0  0  0  0  0  0  0  0  0  0  0
    1.4667   -2.5093    0.0000 N   0  0  0  0  0  0  0  0  0  0  0  0
    2.9276   -4.9671    0.0000 N   0  0  0  0  0  0  0  0  0  0  0  0
    2.1828   -1.2604    0.0000 C   0  0  0  0  0  0  0  0  0  0  0  0
    0.5672   -7.0124    0.0000 C   0  0  0  0  0  0  0  0  0  0  0  0
    3.6495   -6.1932    0.0000 C   0  0  0  0  0  0  0  0  0  0  0  0
    3.6151   -1.2433    0.0000 N   0  0  0  0  0  0  0  0  0  0  0  0
    2.9276   -5.7921    0.0000 C   0  0  0  0  0  0  0  0  0  0  0  0
    3.6323   -3.7182    0.0000 C   0  0  0  0  0  0  0  0  0  0  0  0
    2.8932   -0.8422    0.0000 C   0  0  0  0  0  0  0  0  0  0  0  0
    1.1401   -7.6026    0.0000 C   0  0  0  0  0  0  0  0  0  0  0  0
    3.6151   -2.0682    0.0000 C   0  0  0  0  0  0  0  0  0  0  0  0
    4.3542   -4.9499    0.0000 O   0  0  0  0  0  0  0  0  0  0  0  0
   -0.2348   -7.2072    0.0000 O   0  0  0  0  0  0  0  0  0  0  0  0
    4.3656   -5.7635    0.0000 O   0  0  0  0  0  0  0  0  0  0  0  0
    2.1886   -2.0854    0.0000 C   0  0  0  0  0  0  0  0  0  0  0  0
    0.0344   -0.0344    0.0000 N   0  0  0  0  0  0  0  0  0  0  0  0
    2.9104   -3.3057    0.0000 C   0  0  0  0  0  0  0  0  0  0  0  0
    0.7964   -6.2218    0.0000 N   0  0  0  0  0  0  0  0  0  0  0  0
    4.3370   -3.3000    0.0000 C   0  0  0  0  0  0  0  0  0  0  0  0
    2.9104   -2.4807    0.0000 C   0  0  0  0  0  0  0  0  0  0  0  0
    4.3370   -2.4750    0.0000 C   0  0  0  0  0  0  0  0  0  0  0  0
   -1.3864   -2.5151    0.0000 N   0  0  0  0  0  0  0  0  0  0  0  0
    0.9109   -8.3932    0.0000 C   0  0  0  0  0  0  0  0  0  0  0  0
    1.9308   -7.3963    0.0000 C   0  0  0  0  0  0  0  0  0  0  0  0
    2.2229   -6.2104    0.0000 C   0  0  0  0  0  0  0  0  0  0  0  0
    3.6609   -7.0182    0.0000 O   0  0  0  0  0  0  0  0  0  0  0  0
    2.2859   -8.7885    0.0000 C   0  0  0  0  0  0  0  0  0  0  0  0
    1.5011   -5.7979    0.0000 C   0  0  0  0  0  0  0  0  0  0  0  0
    1.4839   -8.9890    0.0000 C   0  0  0  0  0  0  0  0  0  0  0  0
    2.5093   -7.9921    0.0000 C   0  0  0  0  0  0  0  0  0  0  0  0
    2.8589   -9.3843    0.0000 Cl  0  0  0  0  0  0  0  0  0  0  0  0
    4.3198   -0.8308    0.0000 C   0  0  0  0  0  0  0  0  0  0  0  0
  2  6  1  0  0  0  0
  3  5  2  0  0  0  0
  4  2  2  0  0  0  0
  5  1  1  0  0  0  0
  6  1  2  0  0  0  0
  7  3  1  0  0  0  0
  8 16  1  0  0  0  0
  9  4  1  0  0  0  0
 10  8  1  0  0  0  0
 11  7  2  0  0  0  0
 12 26  1  0  0  0  0
 13 15  1  0  0  0  0
 14 17  1  0  0  0  0
 15 10  1  0  0  0  0
 16 27  1  0  0  0  0
 17 11  1  0  0  0  0
 18 12  1  0  0  0  0
 19 14  1  0  0  0  0
 20  8  2  0  0  0  0
 21 12  2  0  0  0  0
 22 13  2  0  0  0  0
 23  9  2  0  0  0  0
 24  5  1  0  0  0  0
 25 28  1  0  0  0  0
 26 36  1  0  0  0  0
 27 29  2  0  0  0  0
 28 19  2  0  0  0  0
 29 19  1  0  0  0  0
 30  6  1  0  0  0  0
 31 18  2  0  0  0  0
 32 18  1  0  0  0  0
 33 15  1  0  0  0  0
 34 13  1  0  0  0  0
 35 38  1  0  0  0  0
 36 33  1  0  0  0  0
 37 31  1  0  0  0  0
 38 32  2  0  0  0  0
 39 35  1  0  0  0  0
 40 14  1  0  0  0  0
  4  3  1  0  0  0  0
 23 11  1  0  0  0  0
 16 25  2  0  0  0  0
 35 37  2  0  0  0  0
M  END
>  <Mol Weight>
563.996

>  <Formula>
C26H26ClN9O4

>  <chembl_id>
CHEMBL7737

$$$$

  Mrv0541 06201412482D          

 44 49  0  0  1  0            999 V2000
    4.5417   -6.9292    0.0000 C   0  0  0  0  0  0  0  0  0  0  0  0
    3.8292   -7.3417    0.0000 C   0  0  1  0  0  0  0  0  0  0  0  0
    5.9667   -6.9292    0.0000 C   0  0  1  0  0  0  0  0  0  0  0  0
    5.2500   -7.3375    0.0000 C   0  0  2  0  0  0  0  0  0  0  0  0
    7.3875   -6.0917    0.0000 C   0  0  1  0  0  0  0  0  0  0  0  0
    2.4042   -7.3417    0.0000 C   0  0  0  0  0  0  0  0  0  0  0  0
    5.9667   -6.1042    0.0000 C   0  0  0  0  0  0  0  0  0  0  0  0
    3.1167   -6.9292    0.0000 C   0  0  0  0  0  0  0  0  0  0  0  0
    4.5417   -6.1042    0.0000 C   0  0  0  0  0  0  0  0  0  0  0  0
    6.6750   -5.6875    0.0000 C   0  0  0  0  0  0  0  0  0  0  0  0
    3.8292   -8.1667    0.0000 C   0  0  2  0  0  0  0  0  0  0  0  0
    5.2500   -5.6875    0.0000 C   0  0  0  0  0  0  0  0  0  0  0  0
    3.1167   -8.5792    0.0000 C   0  0  0  0  0  0  0  0  0  0  0  0
    2.4042   -8.1667    0.0000 C   0  0  0  0  0  0  0  0  0  0  0  0
    8.1000   -6.5042    0.0000 C   0  0  0  0  0  0  0  0  0  0  0  0
    6.6750   -7.3375    0.0000 C   0  0  0  0  0  0  0  0  0  0  0  0
    1.8167   -6.7542    0.0000 C   0  0  0  0  0  0  0  0  0  0  0  0
    5.2542   -8.1667    0.0000 C   0  0  0  0  0  0  0  0  0  0  0  0
    7.3875   -6.9292    0.0000 C   0  0  0  0  0  0  0  0  0  0  0  0
    1.2375   -6.1667    0.0000 N   0  0  0  0  0  0  0  0  0  0  0  0
    4.5417   -8.5792    0.0000 C   0  0  0  0  0  0  0  0  0  0  0  0
    8.1000   -5.6875    0.0000 C   0  0  0  0  0  0  0  0  0  0  0  0
    6.6750   -4.8625    0.0000 C   0  0  0  0  0  0  0  0  0  0  0  0
    8.0917   -7.3292    0.0000 O   0  0  0  0  0  0  0  0  0  0  0  0
    5.2417   -4.8625    0.0000 O   0  0  0  0  0  0  0  0  0  0  0  0
    1.8167   -8.7542    0.0000 O   0  0  0  0  0  0  0  0  0  0  0  0
    7.3875   -4.4417    0.0000 C   0  0  0  0  0  0  0  0  0  0  0  0
    8.8917   -6.2875    0.0000 O   0  0  0  0  0  0  0  0  0  0  0  0
    8.1000   -4.8625    0.0000 C   0  0  0  0  0  0  0  0  0  0  0  0
    3.8292   -6.5167    0.0000 C   0  0  0  0  0  0  0  0  0  0  0  0
    5.9625   -7.7542    0.0000 C   0  0  0  0  0  0  0  0  0  0  0  0
    5.2417   -6.5125    0.0000 C   0  0  0  0  0  0  0  0  0  0  0  0
    8.8000   -7.7417    0.0000 C   0  0  0  0  0  0  0  0  0  0  0  0
    2.5292   -9.1542    0.0000 C   0  0  0  0  0  0  0  0  0  0  0  0
    3.5250   -9.2917    0.0000 C   0  0  0  0  0  0  0  0  0  0  0  0
    8.7917   -8.5667    0.0000 C   0  0  0  0  0  0  0  0  0  0  0  0
    6.8000   -3.8542    0.0000 C   0  0  0  0  0  0  0  0  0  0  0  0
    7.6000   -3.6417    0.0000 C   0  0  0  0  0  0  0  0  0  0  0  0
    8.0667   -8.9667    0.0000 C   0  0  0  0  0  0  0  0  0  0  0  0
    9.5000   -8.9792    0.0000 C   0  0  0  0  0  0  0  0  0  0  0  0
    9.4917   -9.8042    0.0000 C   0  0  0  0  0  0  0  0  0  0  0  0
    8.0625   -9.7917    0.0000 C   0  0  0  0  0  0  0  0  0  0  0  0
    8.7750  -10.2167    0.0000 C   0  0  0  0  0  0  0  0  0  0  0  0
    4.0417   -8.9667    0.0000 H   0  0  0  0  0  0  0  0  0  0  0  0
  2  1  1  0  0  0  0
  3  4  1  0  0  0  0
  4  1  1  0  0  0  0
  5 10  1  0  0  0  0
  6  8  2  0  0  0  0
  7 12  1  0  0  0  0
  8  2  1  0  0  0  0
  9  1  2  0  0  0  0
 10  7  1  0  0  0  0
 11  2  1  0  0  0  0
 12  9  1  0  0  0  0
 13 11  1  0  0  0  0
 14 13  1  0  0  0  0
  5 15  1  1  0  0  0
 16  3  1  0  0  0  0
 17  6  1  0  0  0  0
 18  4  1  0  0  0  0
 19 16  1  0  0  0  0
 20 17  3  0  0  0  0
 21 18  1  0  0  0  0
 22  5  1  0  0  0  0
 23 10  1  0  0  0  0
 24 15  1  0  0  0  0
 25 12  2  0  0  0  0
 26 14  2  0  0  0  0
 27 23  1  0  0  0  0
 28 15  2  0  0  0  0
 29 27  1  0  0  0  0
  2 30  1  1  0  0  0
  3 31  1  6  0  0  0
  4 32  1  1  0  0  0
 33 24  1  0  0  0  0
 13 34  1  0  0  0  0
 13 35  1  0  0  0  0
 36 33  1  0  0  0  0
 27 37  1  0  0  0  0
 27 38  1  0  0  0  0
 39 36  2  0  0  0  0
 40 36  1  0  0  0  0
 41 40  2  0  0  0  0
 42 39  1  0  0  0  0
 43 41  1  0  0  0  0
 11 44  1  6  0  0  0
  3  7  1  0  0  0  0
 21 11  1  0  0  0  0
  5 19  1  0  0  0  0
 14  6  1  0  0  0  0
 22 29  1  0  0  0  0
 42 43  2  0  0  0  0
M  END
>  <Mol Weight>
581.7841

>  <Formula>
C38H47NO4

>  <chembl_id>
CHEMBL7846

$$$$

  Mrv0541 06201412482D          

 40 43  0  0  1  0            999 V2000
    1.5750   -3.4167    0.0000 C   0  0  2  0  0  0  0  0  0  0  0  0
    2.2917   -3.8292    0.0000 C   0  0  0  0  0  0  0  0  0  0  0  0
    3.0000   -3.4125    0.0000 N   0  0  0  0  0  0  0  0  0  0  0  0
    0.0667   -4.0417    0.0000 S   0  0  0  0  0  0  0  0  0  0  0  0
    0.8667   -3.8292    0.0000 N   0  0  0  0  0  0  0  0  0  0  0  0
    3.7500   -3.7417    0.0000 C   0  0  2  0  0  0  0  0  0  0  0  0
    1.5667   -2.5917    0.0000 C   0  0  0  0  0  0  0  0  0  0  0  0
    4.4625   -4.1542    0.0000 C   0  0  0  0  0  0  0  0  0  0  0  0
    8.9917   -3.0917    0.0000 C   0  0  0  0  0  0  0  0  0  0  0  0
    5.1750   -3.7375    0.0000 N   0  0  0  0  0  0  0  0  0  0  0  0
    0.0792   -3.2625    0.0000 O   0  0  0  0  0  0  0  0  0  0  0  0
    0.0542   -5.0750    0.0000 O   0  0  0  0  0  0  0  0  0  0  0  0
    9.3917   -2.3667    0.0000 N   0  0  0  0  0  0  0  0  0  0  0  0
    2.2875   -4.6542    0.0000 O   0  0  0  0  0  0  0  0  0  0  0  0
    8.2000   -3.3167    0.0000 C   0  0  0  0  0  0  0  0  0  0  0  0
    4.4542   -4.9792    0.0000 O   0  0  0  0  0  0  0  0  0  0  0  0
    2.1542   -2.0042    0.0000 C   0  0  0  0  0  0  0  0  0  0  0  0
    0.8042   -2.2792    0.0000 C   0  0  0  0  0  0  0  0  0  0  0  0
    7.6250   -2.7250    0.0000 C   0  0  0  0  0  0  0  0  0  0  0  0
    7.9750   -4.1125    0.0000 C   0  0  0  0  0  0  0  0  0  0  0  0
    9.7125   -3.5000    0.0000 N   0  0  0  0  0  0  0  0  0  0  0  0
    3.0792   -2.6000    0.0000 C   0  0  0  0  0  0  0  0  0  0  0  0
   10.1917   -2.1500    0.0000 N   0  0  0  0  0  0  0  0  0  0  0  0
    5.8917   -4.1417    0.0000 C   0  0  0  0  0  0  0  0  0  0  0  0
   -0.7583   -4.0417    0.0000 C   0  0  0  0  0  0  0  0  0  0  0  0
    6.6000   -3.7292    0.0000 C   0  0  0  0  0  0  0  0  0  0  0  0
    6.8167   -2.9292    0.0000 C   0  0  0  0  0  0  0  0  0  0  0  0
    7.1750   -4.3167    0.0000 C   0  0  0  0  0  0  0  0  0  0  0  0
    4.3000   -3.1167    0.0000 C   0  0  0  0  0  0  0  0  0  0  0  0
    3.8792   -2.4167    0.0000 C   0  0  0  0  0  0  0  0  0  0  0  0
    0.6917   -1.4667    0.0000 C   0  0  0  0  0  0  0  0  0  0  0  0
    0.1625   -2.7917    0.0000 C   0  0  0  0  0  0  0  0  0  0  0  0
    2.9542   -2.2167    0.0000 C   0  0  0  0  0  0  0  0  0  0  0  0
    1.9292   -1.2125    0.0000 C   0  0  0  0  0  0  0  0  0  0  0  0
   -0.6083   -2.4792    0.0000 C   0  0  0  0  0  0  0  0  0  0  0  0
    3.5375   -1.6292    0.0000 C   0  0  0  0  0  0  0  0  0  0  0  0
    2.5042   -0.6250    0.0000 C   0  0  0  0  0  0  0  0  0  0  0  0
   -0.0708   -1.1542    0.0000 C   0  0  0  0  0  0  0  0  0  0  0  0
    3.3167   -0.8292    0.0000 C   0  0  0  0  0  0  0  0  0  0  0  0
   -0.7208   -1.6625    0.0000 C   0  0  0  0  0  0  0  0  0  0  0  0
  2  1  1  0  0  0  0
  3  2  1  0  0  0  0
  4  5  1  0  0  0  0
  5  1  1  0  0  0  0
  6  3  1  0  0  0  0
  1  7  1  6  0  0  0
  6  8  1  1  0  0  0
  9 15  1  0  0  0  0
 10  8  1  0  0  0  0
 11  4  2  0  0  0  0
 12  4  2  0  0  0  0
 13  9  1  0  0  0  0
 14  2  2  0  0  0  0
 15 20  2  0  0  0  0
 16  8  2  0  0  0  0
 17  7  1  0  0  0  0
 18  7  1  0  0  0  0
 19 27  2  0  0  0  0
 20 28  1  0  0  0  0
 21  9  2  0  0  0  0
 22  3  1  0  0  0  0
 23 13  1  0  0  0  0
 24 10  1  0  0  0  0
 25  4  1  0  0  0  0
 26 24  1  0  0  0  0
 27 26  1  0  0  0  0
 28 26  2  0  0  0  0
 29  6  1  0  0  0  0
 30 22  1  0  0  0  0
 31 18  2  0  0  0  0
 32 18  1  0  0  0  0
 33 17  2  0  0  0  0
 34 17  1  0  0  0  0
 35 32  2  0  0  0  0
 36 33  1  0  0  0  0
 37 34  2  0  0  0  0
 38 31  1  0  0  0  0
 39 37  1  0  0  0  0
 40 35  1  0  0  0  0
 30 29  1  0  0  0  0
 40 38  2  0  0  0  0
 39 36  2  0  0  0  0
 19 15  1  0  0  0  0
M  END
>  <Mol Weight>
562.683

>  <Formula>
C29H34N6O4S

>  <chembl_id>
CHEMBL8133

$$$$

  Mrv0541 06201412482D          

 40 43  0  0  0  0            999 V2000
    4.8417    2.2583    0.0000 S   0  0  0  0  0  0  0  0  0  0  0  0
    0.5625    0.6083    0.0000 C   0  0  0  0  0  0  0  0  0  0  0  0
   -1.3708    1.1333    0.0000 S   0  0  0  0  0  0  0  0  0  0  0  0
   -0.7458    0.3333    0.0000 N   0  0  0  0  0  0  0  0  0  0  0  0
    1.2750    1.0208    0.0000 C   0  0  0  0  0  0  0  0  0  0  0  0
   -0.1958    0.9458    0.0000 O   0  0  0  0  0  0  0  0  0  0  0  0
    4.8417    3.0833    0.0000 C   0  0  0  0  0  0  0  0  0  0  0  0
   -0.3375   -0.3792    0.0000 C   0  0  0  0  0  0  0  0  0  0  0  0
    0.4750   -0.2125    0.0000 C   0  0  0  0  0  0  0  0  0  0  0  0
    1.2750    1.8458    0.0000 N   0  0  0  0  0  0  0  0  0  0  0  0
    4.1292    3.4958    0.0000 C   0  0  0  0  0  0  0  0  0  0  0  0
    0.1417    1.3208    0.0000 C   0  0  0  0  0  0  0  0  0  0  0  0
   -0.6583    1.5375    0.0000 N   0  0  0  0  0  0  0  0  0  0  0  0
   -0.3333   -1.2042    0.0000 C   0  0  0  0  0  0  0  0  0  0  0  0
    2.7042    1.8458    0.0000 N   0  0  0  0  0  0  0  0  0  0  0  0
    1.9917    2.2583    0.0000 C   0  0  0  0  0  0  0  0  0  0  0  0
    0.3792   -2.4500    0.0000 C   0  0  0  0  0  0  0  0  0  0  0  0
    0.3792   -1.6167    0.0000 C   0  0  0  0  0  0  0  0  0  0  0  0
    5.6667    2.2583    0.0000 O   0  0  0  0  0  0  0  0  0  0  0  0
    4.0167    2.2583    0.0000 O   0  0  0  0  0  0  0  0  0  0  0  0
   -1.3750    0.3083    0.0000 O   0  0  0  0  0  0  0  0  0  0  0  0
   -1.9583    1.7208    0.0000 O   0  0  0  0  0  0  0  0  0  0  0  0
    3.4167    3.0833    0.0000 C   0  0  0  0  0  0  0  0  0  0  0  0
    4.8542    1.4333    0.0000 N   0  0  0  0  0  0  0  0  0  0  0  0
   -0.3333   -2.8625    0.0000 C   0  0  0  0  0  0  0  0  0  0  0  0
    1.9917    0.6083    0.0000 O   0  0  0  0  0  0  0  0  0  0  0  0
    3.4167    2.2583    0.0000 C   0  0  0  0  0  0  0  0  0  0  0  0
   -1.0458   -1.6250    0.0000 C   0  0  0  0  0  0  0  0  0  0  0  0
   -1.0458   -2.4500    0.0000 C   0  0  0  0  0  0  0  0  0  0  0  0
    2.7042    3.4958    0.0000 C   0  0  0  0  0  0  0  0  0  0  0  0
    1.1000   -2.8625    0.0000 N   0  0  0  0  0  0  0  0  0  0  0  0
   -2.1375    0.8208    0.0000 C   0  0  0  0  0  0  0  0  0  0  0  0
    1.9917    3.0833    0.0000 C   0  0  0  0  0  0  0  0  0  0  0  0
   -0.3333   -3.6875    0.0000 Cl  0  0  0  0  0  0  0  0  0  0  0  0
    5.5625    3.4958    0.0000 C   0  0  0  0  0  0  0  0  0  0  0  0
    4.1292    4.3250    0.0000 C   0  0  0  0  0  0  0  0  0  0  0  0
   -2.7875    1.3208    0.0000 C   0  0  0  0  0  0  0  0  0  0  0  0
    5.5625    4.3167    0.0000 C   0  0  0  0  0  0  0  0  0  0  0  0
    4.8417    4.7292    0.0000 C   0  0  0  0  0  0  0  0  0  0  0  0
   -3.5583    1.0083    0.0000 C   0  0  0  0  0  0  0  0  0  0  0  0
  2  5  1  0  0  0  0
  3 13  1  0  0  0  0
  4  6  1  0  0  0  0
  5 10  1  0  0  0  0
  6  2  1  0  0  0  0
  7  1  1  0  0  0  0
  8  9  1  0  0  0  0
  9  2  1  0  0  0  0
 10 16  1  0  0  0  0
 11  7  1  0  0  0  0
  2 12  1  0  0  0  0
 13 12  1  0  0  0  0
 14  8  1  0  0  0  0
 15 27  2  0  0  0  0
 16 33  2  0  0  0  0
 17 18  1  0  0  0  0
 18 14  2  0  0  0  0
 19  1  2  0  0  0  0
 20  1  2  0  0  0  0
 21  3  2  0  0  0  0
 22  3  2  0  0  0  0
 23 11  1  0  0  0  0
 24  1  1  0  0  0  0
 25 29  1  0  0  0  0
 26  5  2  0  0  0  0
 27 23  1  0  0  0  0
 28 14  1  0  0  0  0
 29 28  2  0  0  0  0
 30 23  2  0  0  0  0
 31 17  1  0  0  0  0
 32  3  1  0  0  0  0
 33 30  1  0  0  0  0
 34 25  1  0  0  0  0
 35  7  2  0  0  0  0
 36 11  2  0  0  0  0
 37 32  1  0  0  0  0
 38 35  1  0  0  0  0
 39 38  2  0  0  0  0
 40 37  1  0  0  0  0
 36 39  1  0  0  0  0
 16 15  1  0  0  0  0
  8  4  2  0  0  0  0
 17 25  2  0  0  0  0
M  END
>  <Mol Weight>
607.101

>  <Formula>
C25H27ClN6O6S2

>  <chembl_id>
CHEMBL8135

$$$$

  Mrv0541 06201412482D          

 38 41  0  0  0  0            999 V2000
    5.1792    1.3958    0.0000 S   0  0  0  0  0  0  0  0  0  0  0  0
    0.8917   -0.2542    0.0000 C   0  0  0  0  0  0  0  0  0  0  0  0
   -1.0375    0.2708    0.0000 S   0  0  0  0  0  0  0  0  0  0  0  0
   -0.4125   -0.5292    0.0000 N   0  0  0  0  0  0  0  0  0  0  0  0
    1.6042    0.1625    0.0000 C   0  0  0  0  0  0  0  0  0  0  0  0
    0.1375    0.0833    0.0000 O   0  0  0  0  0  0  0  0  0  0  0  0
    5.1792    2.2208    0.0000 C   0  0  0  0  0  0  0  0  0  0  0  0
   -0.0083   -1.2417    0.0000 C   0  0  0  0  0  0  0  0  0  0  0  0
    0.8042   -1.0667    0.0000 C   0  0  0  0  0  0  0  0  0  0  0  0
    1.6042    0.9875    0.0000 N   0  0  0  0  0  0  0  0  0  0  0  0
    4.4667    2.6333    0.0000 C   0  0  0  0  0  0  0  0  0  0  0  0
    0.4792    0.4625    0.0000 C   0  0  0  0  0  0  0  0  0  0  0  0
   -0.3208    0.6833    0.0000 N   0  0  0  0  0  0  0  0  0  0  0  0
    0.0000   -2.0667    0.0000 C   0  0  0  0  0  0  0  0  0  0  0  0
    3.0417    0.9875    0.0000 N   0  0  0  0  0  0  0  0  0  0  0  0
    2.3167    1.4000    0.0000 C   0  0  0  0  0  0  0  0  0  0  0  0
    0.7167   -3.3042    0.0000 C   0  0  0  0  0  0  0  0  0  0  0  0
    0.7167   -2.4792    0.0000 C   0  0  0  0  0  0  0  0  0  0  0  0
    6.0042    1.3958    0.0000 O   0  0  0  0  0  0  0  0  0  0  0  0
    4.3542    1.4000    0.0000 O   0  0  0  0  0  0  0  0  0  0  0  0
   -1.0458   -0.5542    0.0000 O   0  0  0  0  0  0  0  0  0  0  0  0
   -1.6250    0.8583    0.0000 O   0  0  0  0  0  0  0  0  0  0  0  0
    3.7542    2.2208    0.0000 C   0  0  0  0  0  0  0  0  0  0  0  0
    5.1875    0.5708    0.0000 N   0  0  0  0  0  0  0  0  0  0  0  0
    0.0000   -3.7167    0.0000 C   0  0  0  0  0  0  0  0  0  0  0  0
    2.3167   -0.2500    0.0000 O   0  0  0  0  0  0  0  0  0  0  0  0
   -1.7583   -0.1375    0.0000 N   0  0  0  0  0  0  0  0  0  0  0  0
    3.7542    1.4000    0.0000 C   0  0  0  0  0  0  0  0  0  0  0  0
   -0.7125   -2.4792    0.0000 C   0  0  0  0  0  0  0  0  0  0  0  0
   -0.7125   -3.3042    0.0000 C   0  0  0  0  0  0  0  0  0  0  0  0
    3.0375    2.6458    0.0000 C   0  0  0  0  0  0  0  0  0  0  0  0
    1.4292   -3.7167    0.0000 N   0  0  0  0  0  0  0  0  0  0  0  0
    2.3167    2.2250    0.0000 C   0  0  0  0  0  0  0  0  0  0  0  0
    0.0000   -4.5417    0.0000 Cl  0  0  0  0  0  0  0  0  0  0  0  0
    5.8917    2.6333    0.0000 C   0  0  0  0  0  0  0  0  0  0  0  0
    4.4667    3.4625    0.0000 C   0  0  0  0  0  0  0  0  0  0  0  0
    5.1792    3.8750    0.0000 C   0  0  0  0  0  0  0  0  0  0  0  0
    5.8917    3.4625    0.0000 C   0  0  0  0  0  0  0  0  0  0  0  0
  2  5  1  0  0  0  0
  3 13  1  0  0  0  0
  4  6  1  0  0  0  0
  5 10  1  0  0  0  0
  6  2  1  0  0  0  0
  7  1  1  0  0  0  0
  8  9  1  0  0  0  0
  9  2  1  0  0  0  0
 10 16  1  0  0  0  0
 11  7  1  0  0  0  0
  2 12  1  0  0  0  0
 13 12  1  0  0  0  0
 14  8  1  0  0  0  0
 15 28  2  0  0  0  0
 16 33  2  0  0  0  0
 17 18  1  0  0  0  0
 18 14  2  0  0  0  0
 19  1  2  0  0  0  0
 20  1  2  0  0  0  0
 21  3  2  0  0  0  0
 22  3  2  0  0  0  0
 23 11  1  0  0  0  0
 24  1  1  0  0  0  0
 25 30  1  0  0  0  0
 26  5  2  0  0  0  0
 27  3  1  0  0  0  0
 28 23  1  0  0  0  0
 29 14  1  0  0  0  0
 30 29  2  0  0  0  0
 31 23  2  0  0  0  0
 32 17  1  0  0  0  0
 33 31  1  0  0  0  0
 34 25  1  0  0  0  0
 35  7  2  0  0  0  0
 36 11  2  0  0  0  0
 37 38  2  0  0  0  0
 38 35  1  0  0  0  0
 36 37  1  0  0  0  0
 16 15  1  0  0  0  0
  8  4  2  0  0  0  0
 17 25  2  0  0  0  0
M  END
>  <Mol Weight>
580.036

>  <Formula>
C22H22ClN7O6S2

>  <chembl_id>
CHEMBL7854

$$$$

  Mrv0541 06201412482D          

 38 41  0  0  1  0            999 V2000
    1.9417   -3.2917    0.0000 C   0  0  2  0  0  0  0  0  0  0  0  0
    2.6625   -3.7000    0.0000 C   0  0  0  0  0  0  0  0  0  0  0  0
    3.3667   -3.2792    0.0000 N   0  0  0  0  0  0  0  0  0  0  0  0
    0.4375   -3.9125    0.0000 S   0  0  0  0  0  0  0  0  0  0  0  0
    8.3792   -3.8250    0.0000 C   0  0  0  0  0  0  0  0  0  0  0  0
    1.2375   -3.7042    0.0000 N   0  0  0  0  0  0  0  0  0  0  0  0
    7.7042   -4.3000    0.0000 S   0  0  0  0  0  0  0  0  0  0  0  0
    4.1167   -3.6125    0.0000 C   0  0  2  0  0  0  0  0  0  0  0  0
    1.9417   -2.4625    0.0000 C   0  0  0  0  0  0  0  0  0  0  0  0
    4.8292   -4.0250    0.0000 C   0  0  0  0  0  0  0  0  0  0  0  0
    9.2042   -3.8250    0.0000 C   0  0  0  0  0  0  0  0  0  0  0  0
    8.1292   -3.0292    0.0000 C   0  0  0  0  0  0  0  0  0  0  0  0
    7.0542   -3.8000    0.0000 C   0  0  0  0  0  0  0  0  0  0  0  0
    5.5417   -3.6042    0.0000 N   0  0  0  0  0  0  0  0  0  0  0  0
    7.3167   -3.0250    0.0000 C   0  0  0  0  0  0  0  0  0  0  0  0
    0.4250   -4.9417    0.0000 O   0  0  0  0  0  0  0  0  0  0  0  0
    0.4542   -3.1292    0.0000 O   0  0  0  0  0  0  0  0  0  0  0  0
    2.6542   -4.5250    0.0000 O   0  0  0  0  0  0  0  0  0  0  0  0
    9.7875   -3.2375    0.0000 N   0  0  0  0  0  0  0  0  0  0  0  0
    4.8292   -4.8500    0.0000 O   0  0  0  0  0  0  0  0  0  0  0  0
    2.5250   -1.8750    0.0000 C   0  0  0  0  0  0  0  0  0  0  0  0
    1.1750   -2.1542    0.0000 C   0  0  0  0  0  0  0  0  0  0  0  0
    6.2542   -4.0167    0.0000 C   0  0  0  0  0  0  0  0  0  0  0  0
    9.7875   -4.4042    0.0000 N   0  0  0  0  0  0  0  0  0  0  0  0
    3.4542   -2.4667    0.0000 C   0  0  0  0  0  0  0  0  0  0  0  0
   -0.3875   -3.9125    0.0000 C   0  0  0  0  0  0  0  0  0  0  0  0
    4.6667   -2.9875    0.0000 C   0  0  0  0  0  0  0  0  0  0  0  0
    4.2542   -2.2917    0.0000 C   0  0  0  0  0  0  0  0  0  0  0  0
    2.3042   -1.0792    0.0000 C   0  0  0  0  0  0  0  0  0  0  0  0
    1.0667   -1.3375    0.0000 C   0  0  0  0  0  0  0  0  0  0  0  0
    0.5292   -2.6625    0.0000 C   0  0  0  0  0  0  0  0  0  0  0  0
    3.3250   -2.0917    0.0000 C   0  0  0  0  0  0  0  0  0  0  0  0
    0.3042   -1.0250    0.0000 C   0  0  0  0  0  0  0  0  0  0  0  0
   -0.2333   -2.3542    0.0000 C   0  0  0  0  0  0  0  0  0  0  0  0
    3.9042   -1.5042    0.0000 C   0  0  0  0  0  0  0  0  0  0  0  0
    2.8792   -0.4917    0.0000 C   0  0  0  0  0  0  0  0  0  0  0  0
   -0.3500   -1.5292    0.0000 C   0  0  0  0  0  0  0  0  0  0  0  0
    3.6917   -0.7042    0.0000 C   0  0  0  0  0  0  0  0  0  0  0  0
  2  1  1  0  0  0  0
  3  2  1  0  0  0  0
  4  6  1  0  0  0  0
  5  7  1  0  0  0  0
  6  1  1  0  0  0  0
  7 13  1  0  0  0  0
  8  3  1  0  0  0  0
  1  9  1  6  0  0  0
  8 10  1  1  0  0  0
 11  5  1  0  0  0  0
 12 15  1  0  0  0  0
 13 23  1  0  0  0  0
 14 10  1  0  0  0  0
 15 13  2  0  0  0  0
 16  4  2  0  0  0  0
 17  4  2  0  0  0  0
 18  2  2  0  0  0  0
 19 11  2  0  0  0  0
 20 10  2  0  0  0  0
 21  9  1  0  0  0  0
 22  9  1  0  0  0  0
 23 14  1  0  0  0  0
 24 11  1  0  0  0  0
 25  3  1  0  0  0  0
 26  4  1  0  0  0  0
 27  8  1  0  0  0  0
 28 25  1  0  0  0  0
 29 21  1  0  0  0  0
 30 22  2  0  0  0  0
 31 22  1  0  0  0  0
 32 21  2  0  0  0  0
 33 30  1  0  0  0  0
 34 31  2  0  0  0  0
 35 32  1  0  0  0  0
 36 29  2  0  0  0  0
 37 34  1  0  0  0  0
 38 35  2  0  0  0  0
 28 27  1  0  0  0  0
 37 33  2  0  0  0  0
 38 36  1  0  0  0  0
 12  5  2  0  0  0  0
M  END
>  <Mol Weight>
553.696

>  <Formula>
C27H31N5O4S2

>  <chembl_id>
CHEMBL7895

$$$$

  Mrv0541 06201412482D          

 45 49  0  0  1  0            999 V2000
    3.0917   -6.9292    0.0000 C   0  0  0  0  0  0  0  0  0  0  0  0
    2.3792   -7.3417    0.0000 C   0  0  1  0  0  0  0  0  0  0  0  0
    4.5167   -6.9292    0.0000 C   0  0  1  0  0  0  0  0  0  0  0  0
    3.8042   -7.3292    0.0000 C   0  0  2  0  0  0  0  0  0  0  0  0
    5.9417   -6.0917    0.0000 C   0  0  1  0  0  0  0  0  0  0  0  0
    0.9625   -7.3417    0.0000 C   0  0  0  0  0  0  0  0  0  0  0  0
    4.5167   -6.1042    0.0000 C   0  0  0  0  0  0  0  0  0  0  0  0
    1.6667   -6.9292    0.0000 C   0  0  0  0  0  0  0  0  0  0  0  0
    3.0917   -6.1042    0.0000 C   0  0  0  0  0  0  0  0  0  0  0  0
    5.2292   -5.6792    0.0000 C   0  0  0  0  0  0  0  0  0  0  0  0
    2.3792   -8.1667    0.0000 C   0  0  2  0  0  0  0  0  0  0  0  0
    3.8042   -5.6792    0.0000 C   0  0  0  0  0  0  0  0  0  0  0  0
    1.6667   -8.5792    0.0000 C   0  0  0  0  0  0  0  0  0  0  0  0
    0.9625   -8.1667    0.0000 C   0  0  0  0  0  0  0  0  0  0  0  0
    6.6500   -6.5042    0.0000 C   0  0  0  0  0  0  0  0  0  0  0  0
    5.2292   -7.3292    0.0000 C   0  0  0  0  0  0  0  0  0  0  0  0
    0.3750   -6.7542    0.0000 C   0  0  0  0  0  0  0  0  0  0  0  0
    3.8042   -8.1667    0.0000 C   0  0  0  0  0  0  0  0  0  0  0  0
    5.9417   -6.9292    0.0000 C   0  0  0  0  0  0  0  0  0  0  0  0
   -0.2083   -6.1667    0.0000 N   0  0  0  0  0  0  0  0  0  0  0  0
    3.0917   -8.5792    0.0000 C   0  0  0  0  0  0  0  0  0  0  0  0
    6.6542   -5.6792    0.0000 C   0  0  0  0  0  0  0  0  0  0  0  0
    5.2292   -4.8542    0.0000 C   0  0  0  0  0  0  0  0  0  0  0  0
    3.8000   -4.8542    0.0000 O   0  0  0  0  0  0  0  0  0  0  0  0
    0.3750   -8.7542    0.0000 O   0  0  0  0  0  0  0  0  0  0  0  0
    5.9417   -4.4417    0.0000 C   0  0  0  0  0  0  0  0  0  0  0  0
    7.4417   -6.2792    0.0000 O   0  0  0  0  0  0  0  0  0  0  0  0
    6.6542   -4.8542    0.0000 C   0  0  0  0  0  0  0  0  0  0  0  0
    2.3792   -6.5167    0.0000 C   0  0  0  0  0  0  0  0  0  0  0  0
    4.5125   -7.7542    0.0000 C   0  0  0  0  0  0  0  0  0  0  0  0
    3.8000   -6.5042    0.0000 C   0  0  0  0  0  0  0  0  0  0  0  0
    6.6417   -7.3292    0.0000 O   0  0  0  0  0  0  0  0  0  0  0  0
    2.0667   -9.2875    0.0000 C   0  0  0  0  0  0  0  0  0  0  0  0
    1.0792   -9.1542    0.0000 C   0  0  0  0  0  0  0  0  0  0  0  0
    5.3500   -3.8542    0.0000 C   0  0  0  0  0  0  0  0  0  0  0  0
    6.1500   -3.6417    0.0000 C   0  0  0  0  0  0  0  0  0  0  0  0
    7.3500   -7.7417    0.0000 C   0  0  0  0  0  0  0  0  0  0  0  0
    7.3417   -8.5667    0.0000 C   0  0  0  0  0  0  0  0  0  0  0  0
    9.4542  -11.4792    0.0000 C   0  0  0  0  0  0  0  0  0  0  0  0
    8.7417  -11.0625    0.0000 C   0  0  0  0  0  0  0  0  0  0  0  0
    8.7542  -10.2375    0.0000 C   0  0  0  0  0  0  0  0  0  0  0  0
    8.0500   -8.9917    0.0000 C   0  0  0  0  0  0  0  0  0  0  0  0
    8.0417   -9.8167    0.0000 C   0  0  0  0  0  0  0  0  0  0  0  0
    9.4417  -12.3042    0.0000 C   0  0  0  0  0  0  0  0  0  0  0  0
    2.6000   -8.9667    0.0000 H   0  0  0  0  0  0  0  0  0  0  0  0
  2  1  1  0  0  0  0
  3  4  1  0  0  0  0
  4  1  1  0  0  0  0
  5 10  1  0  0  0  0
  6  8  2  0  0  0  0
  7 12  1  0  0  0  0
  8  2  1  0  0  0  0
  9  1  2  0  0  0  0
 10  7  1  0  0  0  0
 11  2  1  0  0  0  0
 12  9  1  0  0  0  0
 13 11  1  0  0  0  0
 14 13  1  0  0  0  0
  5 15  1  1  0  0  0
 16  3  1  0  0  0  0
 17  6  1  0  0  0  0
 18  4  1  0  0  0  0
 19 16  1  0  0  0  0
 20 17  3  0  0  0  0
 21 18  1  0  0  0  0
 22  5  1  0  0  0  0
 23 10  1  0  0  0  0
 24 12  2  0  0  0  0
 25 14  2  0  0  0  0
 26 23  1  0  0  0  0
 27 15  2  0  0  0  0
 28 26  1  0  0  0  0
  2 29  1  1  0  0  0
  3 30  1  6  0  0  0
  4 31  1  1  0  0  0
 32 15  1  0  0  0  0
 13 33  1  0  0  0  0
 13 34  1  0  0  0  0
 26 35  1  0  0  0  0
 26 36  1  0  0  0  0
 37 32  1  0  0  0  0
 38 37  1  0  0  0  0
 39 40  1  0  0  0  0
 40 41  1  0  0  0  0
 41 43  1  0  0  0  0
 42 38  1  0  0  0  0
 43 42  1  0  0  0  0
 44 39  1  0  0  0  0
 11 45  1  6  0  0  0
  3  7  1  0  0  0  0
 21 11  1  0  0  0  0
  5 19  1  0  0  0  0
  6 14  1  0  0  0  0
 22 28  1  0  0  0  0
M  END
>  <Mol Weight>
603.8742

>  <Formula>
C39H57NO4

>  <chembl_id>
CHEMBL7900

$$$$

  Mrv0541 06201412482D          

 43 48  0  0  1  0            999 V2000
    2.7042   -1.4250    0.0000 C   0  0  0  0  0  0  0  0  0  0  0  0
    2.0000   -1.8375    0.0000 C   0  0  1  0  0  0  0  0  0  0  0  0
    4.1292   -1.4250    0.0000 C   0  0  1  0  0  0  0  0  0  0  0  0
    3.4167   -1.8292    0.0000 C   0  0  2  0  0  0  0  0  0  0  0  0
    5.5542   -0.5875    0.0000 C   0  0  1  0  0  0  0  0  0  0  0  0
    0.5750   -1.8375    0.0000 C   0  0  0  0  0  0  0  0  0  0  0  0
    4.1292   -0.6000    0.0000 C   0  0  0  0  0  0  0  0  0  0  0  0
    1.2792   -1.4250    0.0000 C   0  0  0  0  0  0  0  0  0  0  0  0
    2.7042   -0.6000    0.0000 C   0  0  0  0  0  0  0  0  0  0  0  0
    4.8417   -0.1792    0.0000 C   0  0  0  0  0  0  0  0  0  0  0  0
    2.0000   -2.6625    0.0000 C   0  0  2  0  0  0  0  0  0  0  0  0
    3.4167   -0.1792    0.0000 C   0  0  0  0  0  0  0  0  0  0  0  0
    1.2792   -3.0750    0.0000 C   0  0  0  0  0  0  0  0  0  0  0  0
    0.5750   -2.6625    0.0000 C   0  0  0  0  0  0  0  0  0  0  0  0
    6.2667   -1.0000    0.0000 C   0  0  0  0  0  0  0  0  0  0  0  0
    4.8417   -1.8292    0.0000 C   0  0  0  0  0  0  0  0  0  0  0  0
   -0.0125   -1.2500    0.0000 C   0  0  0  0  0  0  0  0  0  0  0  0
    3.4167   -2.6625    0.0000 C   0  0  0  0  0  0  0  0  0  0  0  0
    5.5542   -1.4250    0.0000 C   0  0  0  0  0  0  0  0  0  0  0  0
    7.0917   -0.9917    0.0000 N   0  0  0  0  0  0  0  0  0  0  0  0
   -0.5958   -0.6625    0.0000 N   0  0  0  0  0  0  0  0  0  0  0  0
    2.7042   -3.0750    0.0000 C   0  0  0  0  0  0  0  0  0  0  0  0
    6.2667   -0.1792    0.0000 C   0  0  0  0  0  0  0  0  0  0  0  0
    4.8417    0.6458    0.0000 C   0  0  0  0  0  0  0  0  0  0  0  0
    3.4125    0.6458    0.0000 O   0  0  0  0  0  0  0  0  0  0  0  0
    6.2625   -1.8250    0.0000 O   0  0  0  0  0  0  0  0  0  0  0  0
   -0.0125   -3.2500    0.0000 O   0  0  0  0  0  0  0  0  0  0  0  0
    5.5542    1.0625    0.0000 C   0  0  0  0  0  0  0  0  0  0  0  0
    6.2667    0.6458    0.0000 C   0  0  0  0  0  0  0  0  0  0  0  0
    1.9917   -1.0125    0.0000 C   0  0  0  0  0  0  0  0  0  0  0  0
    4.1250   -2.2500    0.0000 C   0  0  0  0  0  0  0  0  0  0  0  0
    3.4125   -1.0042    0.0000 C   0  0  0  0  0  0  0  0  0  0  0  0
    7.6375   -1.6125    0.0000 C   0  0  0  0  0  0  0  0  0  0  0  0
    1.6875   -3.7875    0.0000 C   0  0  0  0  0  0  0  0  0  0  0  0
    0.6917   -3.6542    0.0000 C   0  0  0  0  0  0  0  0  0  0  0  0
    5.7625    1.8625    0.0000 C   0  0  0  0  0  0  0  0  0  0  0  0
    4.9625    1.6500    0.0000 C   0  0  0  0  0  0  0  0  0  0  0  0
    7.6375   -2.4417    0.0000 C   0  0  0  0  0  0  0  0  0  0  0  0
    8.3500   -1.2000    0.0000 C   0  0  0  0  0  0  0  0  0  0  0  0
    9.0667   -1.6125    0.0000 C   0  0  0  0  0  0  0  0  0  0  0  0
    8.3500   -2.8542    0.0000 C   0  0  0  0  0  0  0  0  0  0  0  0
    9.0667   -2.4417    0.0000 C   0  0  0  0  0  0  0  0  0  0  0  0
    2.2125   -3.4625    0.0000 H   0  0  0  0  0  0  0  0  0  0  0  0
  2  1  1  0  0  0  0
  3  4  1  0  0  0  0
  4  1  1  0  0  0  0
  5 10  1  0  0  0  0
  6  8  2  0  0  0  0
  7 12  1  0  0  0  0
  8  2  1  0  0  0  0
  9  1  2  0  0  0  0
 10  7  1  0  0  0  0
 11  2  1  0  0  0  0
 12  9  1  0  0  0  0
 13 11  1  0  0  0  0
 14 13  1  0  0  0  0
  5 15  1  1  0  0  0
 16  3  1  0  0  0  0
 17  6  1  0  0  0  0
 18  4  1  0  0  0  0
 19 16  1  0  0  0  0
 20 15  1  0  0  0  0
 21 17  3  0  0  0  0
 22 18  1  0  0  0  0
 23  5  1  0  0  0  0
 24 10  1  0  0  0  0
 25 12  2  0  0  0  0
 26 15  2  0  0  0  0
 27 14  2  0  0  0  0
 28 24  1  0  0  0  0
 29 28  1  0  0  0  0
  2 30  1  1  0  0  0
  3 31  1  6  0  0  0
  4 32  1  1  0  0  0
 33 20  1  0  0  0  0
 13 34  1  0  0  0  0
 13 35  1  0  0  0  0
 28 36  1  0  0  0  0
 28 37  1  0  0  0  0
 38 33  2  0  0  0  0
 39 33  1  0  0  0  0
 40 39  2  0  0  0  0
 41 38  1  0  0  0  0
 42 40  1  0  0  0  0
 11 43  1  6  0  0  0
  7  3  1  0  0  0  0
 22 11  1  0  0  0  0
  5 19  1  0  0  0  0
 14  6  1  0  0  0  0
 29 23  1  0  0  0  0
 42 41  2  0  0  0  0
M  END
>  <Mol Weight>
566.7727

>  <Formula>
C37H46N2O3

>  <chembl_id>
CHEMBL7798

$$$$

  Mrv0541 06201412482D          

 39 40  0  0  1  0            999 V2000
    6.6172   -8.6797    0.0000 C   0  0  0  0  0  0  0  0  0  0  0  0
   10.9026   -8.6797    0.0000 C   0  0  0  0  0  0  0  0  0  0  0  0
    8.7656   -9.0922    0.0000 C   0  0  0  0  0  0  0  0  0  0  0  0
    9.4761   -8.6797    0.0000 N   0  0  0  0  0  0  0  0  0  0  0  0
   11.6187   -9.0922    0.0000 N   0  0  0  0  0  0  0  0  0  0  0  0
   10.1922   -9.0922    0.0000 C   0  0  1  0  0  0  0  0  0  0  0  0
   12.3406   -8.6797    0.0000 C   0  0  0  0  0  0  0  0  0  0  0  0
    7.3391   -9.0922    0.0000 N   0  0  0  0  0  0  0  0  0  0  0  0
   13.0511   -9.0922    0.0000 C   0  0  0  0  0  0  0  0  0  0  0  0
    8.0495   -8.6797    0.0000 C   0  0  1  0  0  0  0  0  0  0  0  0
    5.9125   -9.0922    0.0000 N   0  0  0  0  0  0  0  0  0  0  0  0
    6.6172   -7.8547    0.0000 O   0  0  0  0  0  0  0  0  0  0  0  0
   10.9026   -7.8547    0.0000 O   0  0  0  0  0  0  0  0  0  0  0  0
    8.7656   -9.9172    0.0000 O   0  0  0  0  0  0  0  0  0  0  0  0
   12.3406   -7.8547    0.0000 C   0  0  0  0  0  0  0  0  0  0  0  0
   13.0511   -9.9172    0.0000 O   0  0  0  0  0  0  0  0  0  0  0  0
   10.1922   -9.9172    0.0000 C   0  0  0  0  0  0  0  0  0  0  0  0
    5.1906   -8.6797    0.0000 C   0  0  0  0  0  0  0  0  0  0  0  0
   13.7672   -8.6797    0.0000 O   0  0  0  0  0  0  0  0  0  0  0  0
    8.0495   -7.8547    0.0000 C   0  0  0  0  0  0  0  0  0  0  0  0
    3.7641   -7.8433    0.0000 C   0  0  0  0  0  0  0  0  0  0  0  0
   13.0511   -7.4422    0.0000 C   0  0  0  0  0  0  0  0  0  0  0  0
    8.7656   -6.6172    0.0000 S   0  0  0  0  0  0  0  0  0  0  0  0
    5.1964   -7.8433    0.0000 C   0  0  0  0  0  0  0  0  0  0  0  0
    4.4859   -9.0808    0.0000 C   0  0  0  0  0  0  0  0  0  0  0  0
    3.7698   -8.6797    0.0000 C   0  0  0  0  0  0  0  0  0  0  0  0
    4.4859   -7.4308    0.0000 C   0  0  0  0  0  0  0  0  0  0  0  0
    3.0480   -7.4422    0.0000 O   0  0  0  0  0  0  0  0  0  0  0  0
   10.9026  -10.3297    0.0000 C   0  0  0  0  0  0  0  0  0  0  0  0
    8.7656   -7.4422    0.0000 C   0  0  0  0  0  0  0  0  0  0  0  0
    9.4761   -6.1933    0.0000 C   0  0  0  0  0  0  0  0  0  0  0  0
   13.7672   -7.8547    0.0000 C   0  0  0  0  0  0  0  0  0  0  0  0
   13.0453   -6.6172    0.0000 C   0  0  0  0  0  0  0  0  0  0  0  0
    2.3375   -7.8547    0.0000 C   0  0  0  0  0  0  0  0  0  0  0  0
   10.9026  -11.1547    0.0000 C   0  0  0  0  0  0  0  0  0  0  0  0
   11.6187   -9.9172    0.0000 C   0  0  0  0  0  0  0  0  0  0  0  0
   14.4776   -7.4422    0.0000 C   0  0  0  0  0  0  0  0  0  0  0  0
   13.7558   -6.1933    0.0000 C   0  0  0  0  0  0  0  0  0  0  0  0
   14.4776   -6.6172    0.0000 C   0  0  0  0  0  0  0  0  0  0  0  0
  2  6  1  0  0  0  0
  3 10  1  0  0  0  0
  4  3  1  0  0  0  0
  5  2  1  0  0  0  0
  6  4  1  0  0  0  0
  7  5  1  0  0  0  0
  8  1  1  0  0  0  0
  9  7  1  0  0  0  0
 10  8  1  0  0  0  0
 11  1  1  0  0  0  0
 12  1  2  0  0  0  0
 13  2  2  0  0  0  0
 14  3  2  0  0  0  0
 15  7  1  0  0  0  0
 16  9  2  0  0  0  0
  6 17  1  6  0  0  0
 18 11  1  0  0  0  0
 19  9  1  0  0  0  0
 10 20  1  1  0  0  0
 21 26  1  0  0  0  0
 22 15  1  0  0  0  0
 23 30  1  0  0  0  0
 24 18  2  0  0  0  0
 25 18  1  0  0  0  0
 26 25  2  0  0  0  0
 27 24  1  0  0  0  0
 28 21  1  0  0  0  0
 29 17  1  0  0  0  0
 30 20  1  0  0  0  0
 31 23  1  0  0  0  0
 32 22  2  0  0  0  0
 33 22  1  0  0  0  0
 34 28  1  0  0  0  0
 35 29  1  0  0  0  0
 36 29  1  0  0  0  0
 37 32  1  0  0  0  0
 38 33  2  0  0  0  0
 39 38  1  0  0  0  0
 21 27  2  0  0  0  0
 39 37  2  0  0  0  0
M  END
>  <Mol Weight>
558.69

>  <Formula>
C28H38N4O6S

>  <chembl_id>
CHEMBL7753

$$$$

  Mrv0541 06201412482D          

 40 40  0  0  1  0            999 V2000
    9.7887   -3.3758    0.0000 C   0  0  0  0  0  0  0  0  0  0  0  0
   11.1057   -3.3758    0.0000 C   0  0  0  0  0  0  0  0  0  0  0  0
    9.3986   -2.5575    0.0000 C   0  0  0  0  0  0  0  0  0  0  0  0
   10.4536   -2.0396    0.0000 O   0  0  0  0  0  0  0  0  0  0  0  0
   11.4958   -2.5575    0.0000 C   0  0  0  0  0  0  0  0  0  0  0  0
   10.0891   -2.7045    0.0000 O   0  0  0  0  0  0  0  0  0  0  0  0
   10.6454   -6.2786    0.0000 C   0  0  0  0  0  0  0  0  0  0  0  0
    9.4242   -8.3885    0.0000 C   0  0  0  0  0  0  0  0  0  0  0  0
    9.3859   -1.7455    0.0000 C   0  0  0  0  0  0  0  0  0  0  0  0
    8.6954   -7.7172    0.0000 N   0  0  0  0  0  0  0  0  0  0  0  0
   10.5111   -7.2376    0.0000 N   0  0  0  0  0  0  0  0  0  0  0  0
   11.0865   -4.1622    0.0000 N   0  0  0  0  0  0  0  0  0  0  0  0
    7.7555   -8.8040    0.0000 C   0  0  0  0  0  0  0  0  0  0  0  0
    8.5738   -1.7711    0.0000 O   0  0  0  0  0  0  0  0  0  0  0  0
    7.9281   -8.0049    0.0000 C   0  0  0  0  0  0  0  0  0  0  0  0
    9.8846   -5.6775    0.0000 C   0  0  0  0  0  0  0  0  0  0  0  0
   10.3833   -8.1775    0.0000 C   0  0  1  0  0  0  0  0  0  0  0  0
   11.7835   -4.5842    0.0000 C   0  0  0  0  0  0  0  0  0  0  0  0
    8.1902   -2.4935    0.0000 C   0  0  0  0  0  0  0  0  0  0  0  0
    6.9307   -6.0803    0.0000 C   0  0  0  0  0  0  0  0  0  0  0  0
    8.1008    0.3388    0.0000 C   0  0  0  0  0  0  0  0  0  0  0  0
    9.3027   -9.3475    0.0000 O   0  0  0  0  0  0  0  0  0  0  0  0
   11.5469   -5.9077    0.0000 O   0  0  0  0  0  0  0  0  0  0  0  0
    9.3411   -0.3325    0.0000 C   0  0  0  0  0  0  0  0  0  0  0  0
    8.3693   -9.3475    0.0000 O   0  0  0  0  0  0  0  0  0  0  0  0
    8.5227   -0.3517    0.0000 O   0  0  0  0  0  0  0  0  0  0  0  0
   12.5059   -4.1879    0.0000 O   0  0  0  0  0  0  0  0  0  0  0  0
    8.6187   -3.1840    0.0000 O   0  0  0  0  0  0  0  0  0  0  0  0
    6.1571   -6.3105    0.0000 O   0  0  0  0  0  0  0  0  0  0  0  0
    8.4779    1.0677    0.0000 O   0  0  0  0  0  0  0  0  0  0  0  0
    7.3335   -7.4294    0.0000 C   0  0  0  0  0  0  0  0  0  0  0  0
    6.9818   -9.0534    0.0000 N   0  0  0  0  0  0  0  0  0  0  0  0
   11.5150   -1.6944    0.0000 O   0  0  0  0  0  0  0  0  0  0  0  0
    7.5253   -6.6430    0.0000 C   0  0  0  0  0  0  0  0  0  0  0  0
    7.1225   -5.2812    0.0000 O   0  0  0  0  0  0  0  0  0  0  0  0
   11.7770   -5.3963    0.0000 C   0  0  0  0  0  0  0  0  0  0  0  0
    7.3719   -2.5191    0.0000 C   0  0  0  0  0  0  0  0  0  0  0  0
    7.2760    0.3196    0.0000 C   0  0  0  0  0  0  0  0  0  0  0  0
    9.1301   -6.0101    0.0000 C   0  0  0  0  0  0  0  0  0  0  0  0
   11.1122   -8.8296    0.0000 C   0  0  0  0  0  0  0  0  0  0  0  0
  2  1  1  0  0  0  0
  3  1  1  0  0  0  0
  4  3  1  0  0  0  0
  5  2  1  0  0  0  0
  6  1  1  0  0  0  0
  7 16  1  0  0  0  0
  8 17  1  0  0  0  0
  9  3  1  0  0  0  0
 10  8  1  0  0  0  0
 11  7  1  0  0  0  0
 12  2  1  0  0  0  0
 13 15  1  0  0  0  0
 14  9  1  0  0  0  0
 15 10  1  0  0  0  0
 16  6  1  0  0  0  0
 17 11  1  0  0  0  0
 18 12  1  0  0  0  0
 19 14  1  0  0  0  0
 20 34  1  0  0  0  0
 21 26  1  0  0  0  0
 22  8  2  0  0  0  0
 23  7  2  0  0  0  0
 24  9  1  0  0  0  0
 25 13  2  0  0  0  0
 26 24  1  0  0  0  0
 27 18  2  0  0  0  0
 28 19  2  0  0  0  0
 29 20  2  0  0  0  0
 30 21  2  0  0  0  0
 31 15  1  0  0  0  0
 32 13  1  0  0  0  0
  5 33  1  0  0  0  0
 34 31  1  0  0  0  0
 35 20  1  0  0  0  0
 36 18  1  0  0  0  0
 37 19  1  0  0  0  0
 38 21  1  0  0  0  0
 39 16  1  0  0  0  0
 17 40  1  1  0  0  0
  5  4  1  0  0  0  0
M  END
>  <Mol Weight>
576.5509

>  <Formula>
C23H36N4O13

>  <chembl_id>
CHEMBL8351

$$$$

  Mrv0541 06201412482D          

 42 44  0  0  0  0            999 V2000
    6.3625   -7.9417    0.0000 N   0  0  0  0  0  0  0  0  0  0  0  0
    5.6542   -9.1792    0.0000 N   0  0  0  0  0  0  0  0  0  0  0  0
    4.9375   -7.9417    0.0000 C   0  0  0  0  0  0  0  0  0  0  0  0
    4.9375   -8.7750    0.0000 C   0  0  0  0  0  0  0  0  0  0  0  0
    5.6542   -7.5375    0.0000 C   0  0  0  0  0  0  0  0  0  0  0  0
    6.3625   -8.7750    0.0000 C   0  0  0  0  0  0  0  0  0  0  0  0
    4.2292   -7.5375    0.0000 N   0  0  0  0  0  0  0  0  0  0  0  0
    5.6542   -4.9917    0.0000 C   0  0  0  0  0  0  0  0  0  0  0  0
    4.2292   -9.1792    0.0000 N   0  0  0  0  0  0  0  0  0  0  0  0
    6.3625   -5.4042    0.0000 N   0  0  0  0  0  0  0  0  0  0  0  0
    3.5167   -7.9417    0.0000 C   0  0  0  0  0  0  0  0  0  0  0  0
    7.7792   -5.4042    0.0000 C   0  0  0  0  0  0  0  0  0  0  0  0
    6.3667   -1.2667    0.0000 C   0  0  0  0  0  0  0  0  0  0  0  0
    5.6417   -2.5042    0.0000 N   0  0  0  0  0  0  0  0  0  0  0  0
    2.7917   -6.6667    0.0000 N   0  0  0  0  0  0  0  0  0  0  0  0
    7.0750   -4.9917    0.0000 C   0  0  0  0  0  0  0  0  0  0  0  0
    6.3625   -2.9167    0.0000 C   0  0  0  0  0  0  0  0  0  0  0  0
    5.6500   -1.6792    0.0000 C   0  0  0  0  0  0  0  0  0  0  0  0
    4.9167   -5.4375    0.0000 C   0  0  0  0  0  0  0  0  0  0  0  0
    2.7917   -7.5042    0.0000 C   0  0  0  0  0  0  0  0  0  0  0  0
    4.2292   -0.0250    0.0000 C   0  0  0  0  0  0  0  0  0  0  0  0
    3.4917   -6.2542    0.0000 C   0  0  0  0  0  0  0  0  0  0  0  0
    5.6542   -4.1542    0.0000 O   0  0  0  0  0  0  0  0  0  0  0  0
    7.0792   -1.6792    0.0000 O   0  0  0  0  0  0  0  0  0  0  0  0
    7.7792   -6.2375    0.0000 O   0  0  0  0  0  0  0  0  0  0  0  0
    3.5167   -8.7750    0.0000 C   0  0  0  0  0  0  0  0  0  0  0  0
    7.0750   -2.5125    0.0000 O   0  0  0  0  0  0  0  0  0  0  0  0
    4.2292    0.8000    0.0000 O   0  0  0  0  0  0  0  0  0  0  0  0
    5.6542   -6.7000    0.0000 N   0  0  0  0  0  0  0  0  0  0  0  0
    4.9167   -6.2542    0.0000 C   0  0  0  0  0  0  0  0  0  0  0  0
    4.2125   -5.0167    0.0000 C   0  0  0  0  0  0  0  0  0  0  0  0
    4.2125   -6.6667    0.0000 C   0  0  0  0  0  0  0  0  0  0  0  0
    3.4917   -5.4375    0.0000 C   0  0  0  0  0  0  0  0  0  0  0  0
    7.0917   -9.2042    0.0000 N   0  0  0  0  0  0  0  0  0  0  0  0
    7.0750   -4.1667    0.0000 C   0  0  0  0  0  0  0  0  0  0  0  0
    4.9375   -1.2667    0.0000 C   0  0  0  0  0  0  0  0  0  0  0  0
    6.3625   -3.7542    0.0000 C   0  0  0  0  0  0  0  0  0  0  0  0
    4.9417   -0.4417    0.0000 C   0  0  0  0  0  0  0  0  0  0  0  0
    6.3667   -0.4417    0.0000 O   0  0  0  0  0  0  0  0  0  0  0  0
    8.4792   -4.9917    0.0000 O   0  0  0  0  0  0  0  0  0  0  0  0
    3.5125   -0.4292    0.0000 O   0  0  0  0  0  0  0  0  0  0  0  0
    2.0792   -6.2542    0.0000 C   0  0  0  0  0  0  0  0  0  0  0  0
  2  6  2  0  0  0  0
  3  5  1  0  0  0  0
  4  2  1  0  0  0  0
  5  1  2  0  0  0  0
  6  1  1  0  0  0  0
  7  3  1  0  0  0  0
  8 19  1  0  0  0  0
  9  4  1  0  0  0  0
 10  8  1  0  0  0  0
 11  7  2  0  0  0  0
 12 16  1  0  0  0  0
 13 18  1  0  0  0  0
 14 17  1  0  0  0  0
 15 20  1  0  0  0  0
 16 10  1  0  0  0  0
 17 37  1  0  0  0  0
 18 14  1  0  0  0  0
 19 31  1  0  0  0  0
 20 11  1  0  0  0  0
 21 38  1  0  0  0  0
 22 15  1  0  0  0  0
 23  8  2  0  0  0  0
 24 13  2  0  0  0  0
 25 12  2  0  0  0  0
 26  9  2  0  0  0  0
 27 17  2  0  0  0  0
 28 21  2  0  0  0  0
 29  5  1  0  0  0  0
 30 32  1  0  0  0  0
 31 33  2  0  0  0  0
 32 22  2  0  0  0  0
 33 22  1  0  0  0  0
 34  6  1  0  0  0  0
 35 16  1  0  0  0  0
 36 18  1  0  0  0  0
 37 35  1  0  0  0  0
 38 36  1  0  0  0  0
 39 13  1  0  0  0  0
 40 12  1  0  0  0  0
 41 21  1  0  0  0  0
 42 15  1  0  0  0  0
  4  3  2  0  0  0  0
 26 11  1  0  0  0  0
 30 19  2  0  0  0  0
M  END
>  <Mol Weight>
583.5533

>  <Formula>
C25H29N9O8

>  <chembl_id>
CHEMBL8202

$$$$

  Mrv0541 06201412482D          

 39 42  0  0  0  0            999 V2000
    5.3667    1.2708    0.0000 S   0  0  0  0  0  0  0  0  0  0  0  0
    1.0792   -0.3792    0.0000 C   0  0  0  0  0  0  0  0  0  0  0  0
   -0.2250   -0.6542    0.0000 N   0  0  0  0  0  0  0  0  0  0  0  0
    1.7917    0.0375    0.0000 C   0  0  0  0  0  0  0  0  0  0  0  0
    0.3250   -0.0417    0.0000 O   0  0  0  0  0  0  0  0  0  0  0  0
    5.3667    2.0958    0.0000 C   0  0  0  0  0  0  0  0  0  0  0  0
    0.1792   -1.3667    0.0000 C   0  0  0  0  0  0  0  0  0  0  0  0
    0.9917   -1.1917    0.0000 C   0  0  0  0  0  0  0  0  0  0  0  0
    1.7917    0.8625    0.0000 N   0  0  0  0  0  0  0  0  0  0  0  0
    4.6542    2.5083    0.0000 C   0  0  0  0  0  0  0  0  0  0  0  0
   -0.8500    0.1458    0.0000 C   0  0  0  0  0  0  0  0  0  0  0  0
    0.1875   -2.1917    0.0000 C   0  0  0  0  0  0  0  0  0  0  0  0
    3.2292    0.8625    0.0000 N   0  0  0  0  0  0  0  0  0  0  0  0
    2.5042    1.2750    0.0000 C   0  0  0  0  0  0  0  0  0  0  0  0
    0.9042   -3.4292    0.0000 C   0  0  0  0  0  0  0  0  0  0  0  0
    0.9042   -2.6042    0.0000 C   0  0  0  0  0  0  0  0  0  0  0  0
    6.1917    1.2708    0.0000 O   0  0  0  0  0  0  0  0  0  0  0  0
    4.5417    1.2750    0.0000 O   0  0  0  0  0  0  0  0  0  0  0  0
    0.6667    0.3375    0.0000 C   0  0  0  0  0  0  0  0  0  0  0  0
   -0.1333    0.5583    0.0000 N   0  0  0  0  0  0  0  0  0  0  0  0
    3.9417    2.0958    0.0000 C   0  0  0  0  0  0  0  0  0  0  0  0
    5.3750    0.4458    0.0000 N   0  0  0  0  0  0  0  0  0  0  0  0
    0.1875   -3.8417    0.0000 C   0  0  0  0  0  0  0  0  0  0  0  0
    2.5042   -0.3750    0.0000 O   0  0  0  0  0  0  0  0  0  0  0  0
    3.9417    1.2750    0.0000 C   0  0  0  0  0  0  0  0  0  0  0  0
   -0.8583   -0.6792    0.0000 O   0  0  0  0  0  0  0  0  0  0  0  0
   -0.5250   -2.6042    0.0000 C   0  0  0  0  0  0  0  0  0  0  0  0
   -0.5250   -3.4292    0.0000 C   0  0  0  0  0  0  0  0  0  0  0  0
   -1.5625    0.5625    0.0000 N   0  0  0  0  0  0  0  0  0  0  0  0
    3.2250    2.5208    0.0000 C   0  0  0  0  0  0  0  0  0  0  0  0
    1.6167   -3.8417    0.0000 N   0  0  0  0  0  0  0  0  0  0  0  0
    2.5042    2.1000    0.0000 C   0  0  0  0  0  0  0  0  0  0  0  0
    0.1875   -4.6667    0.0000 Cl  0  0  0  0  0  0  0  0  0  0  0  0
    6.0792    2.5083    0.0000 C   0  0  0  0  0  0  0  0  0  0  0  0
    4.6542    3.3375    0.0000 C   0  0  0  0  0  0  0  0  0  0  0  0
   -2.2833    0.1583    0.0000 C   0  0  0  0  0  0  0  0  0  0  0  0
    5.3667    3.7500    0.0000 C   0  0  0  0  0  0  0  0  0  0  0  0
    6.0792    3.3375    0.0000 C   0  0  0  0  0  0  0  0  0  0  0  0
   -2.9958    0.5708    0.0000 C   0  0  0  0  0  0  0  0  0  0  0  0
  2  4  1  0  0  0  0
  3  5  1  0  0  0  0
  4  9  1  0  0  0  0
  5  2  1  0  0  0  0
  6  1  1  0  0  0  0
  7  8  1  0  0  0  0
  8  2  1  0  0  0  0
  9 14  1  0  0  0  0
 10  6  1  0  0  0  0
 11 20  1  0  0  0  0
 12  7  1  0  0  0  0
 13 25  2  0  0  0  0
 14 32  2  0  0  0  0
 15 16  1  0  0  0  0
 16 12  2  0  0  0  0
 17  1  2  0  0  0  0
 18  1  2  0  0  0  0
  2 19  1  0  0  0  0
 20 19  1  0  0  0  0
 21 10  1  0  0  0  0
 22  1  1  0  0  0  0
 23 28  1  0  0  0  0
 24  4  2  0  0  0  0
 25 21  1  0  0  0  0
 26 11  2  0  0  0  0
 27 12  1  0  0  0  0
 28 27  2  0  0  0  0
 29 11  1  0  0  0  0
 30 21  2  0  0  0  0
 31 15  1  0  0  0  0
 32 30  1  0  0  0  0
 33 23  1  0  0  0  0
 34  6  2  0  0  0  0
 35 10  2  0  0  0  0
 36 29  1  0  0  0  0
 37 38  2  0  0  0  0
 38 34  1  0  0  0  0
 39 36  1  0  0  0  0
 35 37  1  0  0  0  0
 14 13  1  0  0  0  0
  7  3  2  0  0  0  0
 15 23  2  0  0  0  0
M  END
>  <Mol Weight>
572.036

>  <Formula>
C25H26ClN7O5S

>  <chembl_id>
CHEMBL8356

$$$$

  Mrv0541 06201412482D          

 42 47  0  0  1  0            999 V2000
   -2.0523   -1.3533    0.0000 C   0  0  0  0  0  0  0  0  0  0  0  0
   -2.7813   -1.7577    0.0000 C   0  0  1  0  0  0  0  0  0  0  0  0
   -0.6092   -1.3533    0.0000 C   0  0  1  0  0  0  0  0  0  0  0  0
   -1.3332   -1.7577    0.0000 C   0  0  2  0  0  0  0  0  0  0  0  0
    0.8389   -0.5393    0.0000 C   0  0  1  0  0  0  0  0  0  0  0  0
   -4.2244   -1.7577    0.0000 C   0  0  0  0  0  0  0  0  0  0  0  0
   -0.6092   -0.5443    0.0000 C   0  0  0  0  0  0  0  0  0  0  0  0
   -3.5003   -1.3533    0.0000 C   0  0  0  0  0  0  0  0  0  0  0  0
   -2.0523   -0.5443    0.0000 C   0  0  0  0  0  0  0  0  0  0  0  0
    0.1099   -0.1399    0.0000 C   0  0  0  0  0  0  0  0  0  0  0  0
    1.5630   -0.9438    0.0000 C   0  0  0  0  0  0  0  0  0  0  0  0
   -2.7813   -2.5666    0.0000 C   0  0  2  0  0  0  0  0  0  0  0  0
   -1.3332   -0.1399    0.0000 C   0  0  0  0  0  0  0  0  0  0  0  0
   -3.5003   -2.9711    0.0000 C   0  0  0  0  0  0  0  0  0  0  0  0
   -4.2244   -2.5666    0.0000 C   0  0  0  0  0  0  0  0  0  0  0  0
    2.4019   -0.9438    0.0000 N   0  0  0  0  0  0  0  0  0  0  0  0
    0.1099   -1.7577    0.0000 C   0  0  0  0  0  0  0  0  0  0  0  0
   -4.8336   -1.1885    0.0000 C   0  0  0  0  0  0  0  0  0  0  0  0
    0.8389   -1.3533    0.0000 C   0  0  0  0  0  0  0  0  0  0  0  0
   -1.3282   -2.5666    0.0000 C   0  0  0  0  0  0  0  0  0  0  0  0
   -5.4178   -0.6142    0.0000 N   0  0  0  0  0  0  0  0  0  0  0  0
    1.5630   -0.1399    0.0000 C   0  0  0  0  0  0  0  0  0  0  0  0
   -2.0523   -2.9711    0.0000 C   0  0  0  0  0  0  0  0  0  0  0  0
    0.1099    0.6691    0.0000 C   0  0  0  0  0  0  0  0  0  0  0  0
    1.5480   -1.7527    0.0000 O   0  0  0  0  0  0  0  0  0  0  0  0
   -1.3432    0.6691    0.0000 O   0  0  0  0  0  0  0  0  0  0  0  0
   -4.8336   -3.1509    0.0000 O   0  0  0  0  0  0  0  0  0  0  0  0
    0.8389    1.0786    0.0000 C   0  0  0  0  0  0  0  0  0  0  0  0
    1.5630    0.6691    0.0000 C   0  0  0  0  0  0  0  0  0  0  0  0
   -2.7813   -0.9488    0.0000 C   0  0  0  0  0  0  0  0  0  0  0  0
   -0.6092   -2.1622    0.0000 C   0  0  0  0  0  0  0  0  0  0  0  0
   -1.3432   -0.9488    0.0000 C   0  0  0  0  0  0  0  0  0  0  0  0
   -4.0995   -3.5404    0.0000 C   0  0  0  0  0  0  0  0  0  0  0  0
   -3.0859   -3.6752    0.0000 C   0  0  0  0  0  0  0  0  0  0  0  0
    2.7614   -1.6678    0.0000 C   0  0  0  0  0  0  0  0  0  0  0  0
    2.8762   -0.2747    0.0000 C   0  0  0  0  0  0  0  0  0  0  0  0
    0.2447    1.6578    0.0000 C   0  0  0  0  0  0  0  0  0  0  0  0
    1.0536    1.8675    0.0000 C   0  0  0  0  0  0  0  0  0  0  0  0
    3.5952   -1.7278    0.0000 C   0  0  0  0  0  0  0  0  0  0  0  0
    3.7151   -0.3346    0.0000 C   0  0  0  0  0  0  0  0  0  0  0  0
    4.0647   -1.0686    0.0000 C   0  0  0  0  0  0  0  0  0  0  0  0
   -2.5616   -3.3556    0.0000 H   0  0  0  0  0  0  0  0  0  0  0  0
  2  1  1  0  0  0  0
  3  4  1  0  0  0  0
  4  1  1  0  0  0  0
  5 10  1  0  0  0  0
  6  8  2  0  0  0  0
  7 13  1  0  0  0  0
  8  2  1  0  0  0  0
  9  1  2  0  0  0  0
 10  7  1  0  0  0  0
  5 11  1  1  0  0  0
 12  2  1  0  0  0  0
 13  9  1  0  0  0  0
 14 12  1  0  0  0  0
 15 14  1  0  0  0  0
 16 11  1  0  0  0  0
 17  3  1  0  0  0  0
 18  6  1  0  0  0  0
 19 17  1  0  0  0  0
 20  4  1  0  0  0  0
 21 18  3  0  0  0  0
 22  5  1  0  0  0  0
 23 20  1  0  0  0  0
 24 10  1  0  0  0  0
 25 11  2  0  0  0  0
 26 13  2  0  0  0  0
 27 15  2  0  0  0  0
 28 24  1  0  0  0  0
 29 28  1  0  0  0  0
  2 30  1  1  0  0  0
  3 31  1  6  0  0  0
  4 32  1  1  0  0  0
 14 33  1  0  0  0  0
 14 34  1  0  0  0  0
 35 16  1  0  0  0  0
 36 16  1  0  0  0  0
 28 37  1  0  0  0  0
 28 38  1  0  0  0  0
 39 35  1  0  0  0  0
 40 36  1  0  0  0  0
 41 40  1  0  0  0  0
 12 42  1  6  0  0  0
  7  3  1  0  0  0  0
 23 12  1  0  0  0  0
  5 19  1  0  0  0  0
 15  6  1  0  0  0  0
 29 22  1  0  0  0  0
 41 39  1  0  0  0  0
M  END
>  <Mol Weight>
558.7938

>  <Formula>
C36H50N2O3

>  <chembl_id>
CHEMBL8089

$$$$

  Mrv0541 06201412482D          

 44 49  0  0  0  0            999 V2000
    6.7493   -0.3080    0.0000 C   0  0  0  0  0  0  0  0  0  0  0  0
    6.7481   -1.1344    0.0000 C   0  0  0  0  0  0  0  0  0  0  0  0
    7.4622   -1.5467    0.0000 C   0  0  0  0  0  0  0  0  0  0  0  0
    7.4604    0.1044    0.0000 C   0  0  0  0  0  0  0  0  0  0  0  0
    8.1748   -0.3044    0.0000 C   0  0  0  0  0  0  0  0  0  0  0  0
    8.1736   -1.1364    0.0000 C   0  0  0  0  0  0  0  0  0  0  0  0
    8.8897   -1.5512    0.0000 C   0  0  0  0  0  0  0  0  0  0  0  0
    9.6115   -1.1385    0.0000 C   0  0  0  0  0  0  0  0  0  0  0  0
   10.3304   -1.5539    0.0000 C   0  0  0  0  0  0  0  0  0  0  0  0
   11.0511   -1.1383    0.0000 C   0  0  0  0  0  0  0  0  0  0  0  0
   11.0483   -0.3030    0.0000 C   0  0  0  0  0  0  0  0  0  0  0  0
    8.8927    0.1134    0.0000 C   0  0  0  0  0  0  0  0  0  0  0  0
    9.6128   -0.3064    0.0000 C   0  0  0  0  0  0  0  0  0  0  0  0
   10.3291    0.1100    0.0000 C   0  0  0  0  0  0  0  0  0  0  0  0
   10.1530    0.9202    0.0000 N   0  0  0  0  0  0  0  0  0  0  0  0
    9.3284    1.0012    0.0000 N   0  0  0  0  0  0  0  0  0  0  0  0
   10.5675    1.6324    0.0000 C   0  0  0  0  0  0  0  0  0  0  0  0
   11.3916    1.6294    0.0000 C   0  0  0  0  0  0  0  0  0  0  0  0
   11.8062    2.3416    0.0000 N   0  0  0  0  0  0  0  0  0  0  0  0
    8.8874   -2.3753    0.0000 O   0  0  0  0  0  0  0  0  0  0  0  0
   12.6303    2.3386    0.0000 C   0  0  0  0  0  0  0  0  0  0  0  0
   13.0449    3.0507    0.0000 O   0  0  0  0  0  0  0  0  0  0  0  0
   13.0397    1.6235    0.0000 C   0  0  0  0  0  0  0  0  0  0  0  0
   12.8105    0.8380    0.0000 N   0  0  0  0  0  0  0  0  0  0  0  0
   13.4932    0.3748    0.0000 C   0  0  0  0  0  0  0  0  0  0  0  0
   14.1440    0.8822    0.0000 C   0  0  0  0  0  0  0  0  0  0  0  0
   13.8612    1.6572    0.0000 C   0  0  0  0  0  0  0  0  0  0  0  0
   12.0351    0.5590    0.0000 C   0  0  0  0  0  0  0  0  0  0  0  0
   14.8564    0.4678    0.0000 N   0  0  0  0  0  0  0  0  0  0  0  0
   14.8537   -0.3563    0.0000 C   0  0  0  0  0  0  0  0  0  0  0  0
   14.1387   -0.7660    0.0000 O   0  0  0  0  0  0  0  0  0  0  0  0
   15.5662   -0.7706    0.0000 C   0  0  0  0  0  0  0  0  0  0  0  0
   15.8085   -1.5611    0.0000 N   0  0  0  0  0  0  0  0  0  0  0  0
   16.6334   -1.5766    0.0000 C   0  0  0  0  0  0  0  0  0  0  0  0
   16.9017   -0.7962    0.0000 C   0  0  0  0  0  0  0  0  0  0  0  0
   16.2417   -0.3012    0.0000 C   0  0  0  0  0  0  0  0  0  0  0  0
   15.3124   -2.2191    0.0000 C   0  0  0  0  0  0  0  0  0  0  0  0
   17.1057   -2.2519    0.0000 N   0  0  0  0  0  0  0  0  0  0  0  0
   16.7142   -2.9769    0.0000 C   0  0  0  0  0  0  0  0  0  0  0  0
   17.1464   -3.6786    0.0000 C   0  0  0  0  0  0  0  0  0  0  0  0
   15.8904   -3.0004    0.0000 O   0  0  0  0  0  0  0  0  0  0  0  0
   16.7548   -4.4037    0.0000 N   0  0  0  0  0  0  0  0  0  0  0  0
   17.1870   -5.1053    0.0000 C   0  0  0  0  0  0  0  0  0  0  0  0
   15.9311   -4.4272    0.0000 C   0  0  0  0  0  0  0  0  0  0  0  0
  5  4  1  0  0  0  0
 19 21  1  0  0  0  0
  8  9  2  0  0  0  0
 21 22  2  0  0  0  0
  4  1  2  0  0  0  0
 21 23  1  0  0  0  0
 24 25  1  0  0  0  0
  9 10  1  0  0  0  0
  5  6  2  0  0  0  0
 10 11  2  0  0  0  0
 11 14  1  0  0  0  0
 23 24  1  0  0  0  0
 25 26  2  0  0  0  0
 26 27  1  0  0  0  0
 27 23  2  0  0  0  0
 13 14  2  0  0  0  0
 24 28  1  0  0  0  0
 26 29  1  0  0  0  0
  2  3  2  0  0  0  0
 29 30  1  0  0  0  0
  3  6  1  0  0  0  0
 30 31  2  0  0  0  0
  5 12  1  0  0  0  0
 30 32  1  0  0  0  0
 33 34  1  0  0  0  0
  6  7  1  0  0  0  0
 14 15  1  0  0  0  0
 15 16  1  0  0  0  0
 16 12  2  0  0  0  0
 32 33  1  0  0  0  0
 34 35  2  0  0  0  0
 35 36  1  0  0  0  0
 36 32  2  0  0  0  0
  7  8  1  0  0  0  0
 33 37  1  0  0  0  0
 15 17  1  0  0  0  0
 34 38  1  0  0  0  0
 13 12  1  0  0  0  0
 38 39  1  0  0  0  0
 17 18  1  0  0  0  0
 39 40  1  0  0  0  0
  1  2  1  0  0  0  0
 39 41  2  0  0  0  0
 18 19  1  0  0  0  0
 40 42  1  0  0  0  0
 13  8  1  0  0  0  0
 42 43  1  0  0  0  0
  7 20  2  0  0  0  0
 42 44  1  0  0  0  0
M  END
>  <Mol Weight>
592.6477

>  <Formula>
C32H32N8O4

>  <chembl_id>
CHEMBL1163217

$$$$

  Mrv0541 06201412482D          

 41 43  0  0  1  0            999 V2000
   -2.8378   -9.0311    0.0000 N   0  0  0  0  0  0  0  0  0  0  0  0
    3.6225   -8.2924    0.0000 N   0  0  0  0  0  0  0  0  0  0  0  0
    2.9088   -8.7056    0.0000 C   0  0  0  0  0  0  0  0  0  0  0  0
   -3.6641   -9.0144    0.0000 C   0  0  0  0  0  0  0  0  0  0  0  0
   -1.3647   -8.9142    0.0000 C   0  0  0  0  0  0  0  0  0  0  0  0
    0.7679   -8.3050    0.0000 C   0  0  0  0  0  0  0  0  0  0  0  0
   -2.1284   -8.6012    0.0000 C   0  0  2  0  0  0  0  0  0  0  0  0
   -0.7094   -8.4051    0.0000 N   0  0  0  0  0  0  0  0  0  0  0  0
    4.4488   -8.2924    0.0000 C   0  0  2  0  0  0  0  0  0  0  0  0
    0.0543   -8.7181    0.0000 C   0  0  1  0  0  0  0  0  0  0  0  0
    1.4816   -8.7139    0.0000 N   0  0  0  0  0  0  0  0  0  0  0  0
    2.1952   -8.3007    0.0000 C   0  0  1  0  0  0  0  0  0  0  0  0
    4.9371   -8.9643    0.0000 C   0  0  0  0  0  0  0  0  0  0  0  0
   -4.0898   -9.7155    0.0000 C   0  0  2  0  0  0  0  0  0  0  0  0
    2.9088   -9.5319    0.0000 O   0  0  0  0  0  0  0  0  0  0  0  0
   -4.0565   -8.2882    0.0000 O   0  0  0  0  0  0  0  0  0  0  0  0
   -1.2520   -9.7322    0.0000 O   0  0  0  0  0  0  0  0  0  0  0  0
    0.7637   -7.4786    0.0000 O   0  0  0  0  0  0  0  0  0  0  0  0
   -3.6934  -10.4417    0.0000 C   0  0  0  0  0  0  0  0  0  0  0  0
    4.5990   -9.7197    0.0000 O   0  0  0  0  0  0  0  0  0  0  0  0
   -3.4638   -8.5053    0.0000 C   0  0  0  0  0  0  0  0  0  0  0  0
    3.3679   -7.5037    0.0000 C   0  0  0  0  0  0  0  0  0  0  0  0
   -4.9161   -9.6947    0.0000 N   0  0  0  0  0  0  0  0  0  0  0  0
    5.7592   -8.8767    0.0000 O   0  0  0  0  0  0  0  0  0  0  0  0
   -3.9145  -11.2346    0.0000 C   0  0  0  0  0  0  0  0  0  0  0  0
    0.1127   -9.5402    0.0000 C   0  0  0  0  0  0  0  0  0  0  0  0
    1.6652   -4.7493    0.0000 N   0  0  0  0  0  0  0  0  0  0  0  0
   -2.3245   -7.8000    0.0000 C   0  0  0  0  0  0  0  0  0  0  0  0
    4.7075   -7.5037    0.0000 C   0  0  0  0  0  0  0  0  0  0  0  0
   -0.5717  -10.0035    0.0000 O   0  0  0  0  0  0  0  0  0  0  0  0
    4.0356   -7.0237    0.0000 C   0  0  0  0  0  0  0  0  0  0  0  0
   -3.1508   -7.7374    0.0000 C   0  0  0  0  0  0  0  0  0  0  0  0
    2.4080   -7.5037    0.0000 C   0  0  0  0  0  0  0  0  0  0  0  0
    1.4523   -5.5464    0.0000 C   0  0  0  0  0  0  0  0  0  0  0  0
   -3.3386  -11.8231    0.0000 C   0  0  0  0  0  0  0  0  0  0  0  0
   -4.7158  -11.4433    0.0000 C   0  0  0  0  0  0  0  0  0  0  0  0
    1.8196   -6.9236    0.0000 C   0  0  0  0  0  0  0  0  0  0  0  0
    2.0324   -6.1265    0.0000 C   0  0  0  0  0  0  0  0  0  0  0  0
   -4.9287  -12.2362    0.0000 C   0  0  0  0  0  0  0  0  0  0  0  0
   -3.5515  -12.6118    0.0000 C   0  0  0  0  0  0  0  0  0  0  0  0
   -4.3527  -12.8247    0.0000 C   0  0  0  0  0  0  0  0  0  0  0  0
  2  3  1  0  0  0  0
  3 12  1  0  0  0  0
  4  1  1  0  0  0  0
  7  5  1  1  0  0  0
  6 10  1  0  0  0  0
  7  1  1  0  0  0  0
  8  5  1  0  0  0  0
  9  2  1  0  0  0  0
 10  8  1  6  0  0  0
 11  6  1  0  0  0  0
 12 11  1  1  0  0  0
  9 13  1  1  0  0  0
 14  4  1  0  0  0  0
 15  3  2  0  0  0  0
 16  4  2  0  0  0  0
 17  5  2  0  0  0  0
 18  6  2  0  0  0  0
 14 19  1  0  0  0  0
 20 13  2  0  0  0  0
 21  1  1  0  0  0  0
 22  2  1  0  0  0  0
 14 23  1  6  0  0  0
 24 13  1  0  0  0  0
 25 19  1  0  0  0  0
 10 26  1  0  0  0  0
 27 34  1  0  0  0  0
  7 28  1  0  0  0  0
  9 29  1  0  0  0  0
 30 26  1  0  0  0  0
 31 22  1  0  0  0  0
 32 21  1  0  0  0  0
 12 33  1  0  0  0  0
 34 38  1  0  0  0  0
 35 25  1  0  0  0  0
 36 25  2  0  0  0  0
 37 33  1  0  0  0  0
 38 37  1  0  0  0  0
 39 36  1  0  0  0  0
 40 35  2  0  0  0  0
 41 39  2  0  0  0  0
 28 32  1  0  0  0  0
 41 40  1  0  0  0  0
 29 31  1  0  0  0  0
M  END
>  <Mol Weight>
574.6691

>  <Formula>
C28H42N6O7

>  <chembl_id>
CHEMBL8072

$$$$

  Mrv0541 06201412482D          

 40 42  0  0  0  0            999 V2000
    8.3016   -2.6183    0.0000 N   0  0  0  0  0  0  0  0  0  0  0  0
    9.0120   -3.8558    0.0000 N   0  0  0  0  0  0  0  0  0  0  0  0
    9.7281   -2.6183    0.0000 C   0  0  0  0  0  0  0  0  0  0  0  0
    9.7281   -3.4433    0.0000 C   0  0  0  0  0  0  0  0  0  0  0  0
    9.0120   -2.2058    0.0000 C   0  0  0  0  0  0  0  0  0  0  0  0
    8.3016   -3.4433    0.0000 C   0  0  0  0  0  0  0  0  0  0  0  0
    9.7683   -7.5683    0.0000 C   0  0  0  0  0  0  0  0  0  0  0  0
    9.7511   -8.3933    0.0000 N   0  0  0  0  0  0  0  0  0  0  0  0
   10.4386   -2.2000    0.0000 N   0  0  0  0  0  0  0  0  0  0  0  0
   11.8995   -7.1386    0.0000 C   0  0  0  0  0  0  0  0  0  0  0  0
   12.6042   -5.8839    0.0000 C   0  0  0  0  0  0  0  0  0  0  0  0
   11.8995   -6.3136    0.0000 N   0  0  0  0  0  0  0  0  0  0  0  0
   10.4386   -3.8558    0.0000 N   0  0  0  0  0  0  0  0  0  0  0  0
    9.0406   -8.7886    0.0000 N   0  0  0  0  0  0  0  0  0  0  0  0
   12.6214   -7.5339    0.0000 C   0  0  0  0  0  0  0  0  0  0  0  0
   11.1547   -2.6011    0.0000 C   0  0  0  0  0  0  0  0  0  0  0  0
   10.4730   -7.1500    0.0000 N   0  0  0  0  0  0  0  0  0  0  0  0
   12.5870   -2.5953    0.0000 N   0  0  0  0  0  0  0  0  0  0  0  0
   12.6042   -5.0589    0.0000 C   0  0  0  0  0  0  0  0  0  0  0  0
   11.8651   -2.1886    0.0000 C   0  0  0  0  0  0  0  0  0  0  0  0
   11.1948   -7.5511    0.0000 C   0  0  0  0  0  0  0  0  0  0  0  0
   12.5870   -3.4203    0.0000 C   0  0  0  0  0  0  0  0  0  0  0  0
    9.1839   -6.9839    0.0000 O   0  0  0  0  0  0  0  0  0  0  0  0
   13.3261   -6.2964    0.0000 O   0  0  0  0  0  0  0  0  0  0  0  0
    8.3245   -8.3761    0.0000 O   0  0  0  0  0  0  0  0  0  0  0  0
   13.3375   -7.1214    0.0000 O   0  0  0  0  0  0  0  0  0  0  0  0
   11.1605   -3.4375    0.0000 C   0  0  0  0  0  0  0  0  0  0  0  0
    9.0062   -1.3808    0.0000 N   0  0  0  0  0  0  0  0  0  0  0  0
   11.8823   -4.6578    0.0000 C   0  0  0  0  0  0  0  0  0  0  0  0
   13.3089   -4.6464    0.0000 C   0  0  0  0  0  0  0  0  0  0  0  0
   11.8823   -3.8328    0.0000 C   0  0  0  0  0  0  0  0  0  0  0  0
   13.3089   -3.8214    0.0000 C   0  0  0  0  0  0  0  0  0  0  0  0
    7.5855   -3.8558    0.0000 N   0  0  0  0  0  0  0  0  0  0  0  0
   10.4730   -8.8058    0.0000 C   0  0  0  0  0  0  0  0  0  0  0  0
   12.6328   -8.3589    0.0000 O   0  0  0  0  0  0  0  0  0  0  0  0
    9.7453  -10.0433    0.0000 Cl  0  0  0  0  0  0  0  0  0  0  0  0
   13.2917   -2.1714    0.0000 C   0  0  0  0  0  0  0  0  0  0  0  0
   10.4558   -9.6308    0.0000 C   0  0  0  0  0  0  0  0  0  0  0  0
   13.3433   -8.7714    0.0000 C   0  0  0  0  0  0  0  0  0  0  0  0
   14.0480   -8.3531    0.0000 C   0  0  0  0  0  0  0  0  0  0  0  0
  2  6  1  0  0  0  0
  3  5  2  0  0  0  0
  4  2  2  0  0  0  0
  5  1  1  0  0  0  0
  6  1  2  0  0  0  0
  7 17  1  0  0  0  0
  8  7  1  0  0  0  0
  9  3  1  0  0  0  0
 10 12  1  0  0  0  0
 11 19  1  0  0  0  0
 12 11  1  0  0  0  0
 13  4  1  0  0  0  0
 14  8  1  0  0  0  0
 15 10  1  0  0  0  0
 16  9  2  0  0  0  0
 17 21  1  0  0  0  0
 18 20  1  0  0  0  0
 19 30  1  0  0  0  0
 20 16  1  0  0  0  0
 21 10  1  0  0  0  0
 22 18  1  0  0  0  0
 23  7  2  0  0  0  0
 24 11  2  0  0  0  0
 25 14  2  0  0  0  0
 26 15  2  0  0  0  0
 27 13  2  0  0  0  0
 28  5  1  0  0  0  0
 29 31  1  0  0  0  0
 30 32  2  0  0  0  0
 31 22  2  0  0  0  0
 32 22  1  0  0  0  0
 33  6  1  0  0  0  0
 34  8  1  0  0  0  0
 35 15  1  0  0  0  0
 36 38  1  0  0  0  0
 37 18  1  0  0  0  0
 38 34  1  0  0  0  0
 39 35  1  0  0  0  0
 40 39  1  0  0  0  0
  3  4  1  0  0  0  0
 27 16  1  0  0  0  0
 29 19  2  0  0  0  0
M  END
>  <Mol Weight>
573.992

>  <Formula>
C23H28ClN11O5

>  <chembl_id>
CHEMBL8210

$$$$

  Mrv0541 06201412482D          

 27 30  0  0  0  0            999 V2000
    3.7021    0.7953    0.0000 N   0  0  0  0  0  0  0  0  0  0  0  0
    4.3517    0.2873    0.0000 C   0  0  0  0  0  0  0  0  0  0  0  0
    3.0275    0.3331    0.0000 C   0  0  0  0  0  0  0  0  0  0  0  0
    4.0727   -0.4872    0.0000 C   0  0  0  0  0  0  0  0  0  0  0  0
    3.2523   -0.4539    0.0000 C   0  0  0  0  0  0  0  0  0  0  0  0
    4.0269   -1.9156    0.0000 C   0  0  0  0  0  0  0  0  0  0  0  0
    3.2024   -1.8864    0.0000 C   0  0  0  0  0  0  0  0  0  0  0  0
    4.4641   -1.2035    0.0000 C   0  0  0  0  0  0  0  0  0  0  0  0
    2.8151   -1.1535    0.0000 C   0  0  0  0  0  0  0  0  0  0  0  0
    4.4142   -2.6402    0.0000 N   0  0  0  0  0  0  0  0  0  0  0  0
    2.7651   -2.5860    0.0000 N   0  0  0  0  0  0  0  0  0  0  0  0
    2.2529    0.6121    0.0000 O   0  0  0  0  0  0  0  0  0  0  0  0
    5.1470    0.5122    0.0000 O   0  0  0  0  0  0  0  0  0  0  0  0
    1.9406   -2.5527    0.0000 C   0  0  0  0  0  0  0  0  0  0  0  0
    5.2387   -2.6652    0.0000 C   0  0  0  0  0  0  0  0  0  0  0  0
    6.8877   -2.7151    0.0000 C   0  0  0  0  0  0  0  0  0  0  0  0
    0.2915   -2.5028    0.0000 C   0  0  0  0  0  0  0  0  0  0  0  0
   -0.5330   -2.4778    0.0000 I   0  0  0  0  0  0  0  0  0  0  0  0
    7.7123   -2.7401    0.0000 I   0  0  0  0  0  0  0  0  0  0  0  0
    1.5533   -1.8282    0.0000 C   0  0  0  0  0  0  0  0  0  0  0  0
    5.6260   -3.3981    0.0000 C   0  0  0  0  0  0  0  0  0  0  0  0
    1.5033   -3.2648    0.0000 C   0  0  0  0  0  0  0  0  0  0  0  0
    5.6759   -1.9656    0.0000 C   0  0  0  0  0  0  0  0  0  0  0  0
    6.4505   -3.4272    0.0000 C   0  0  0  0  0  0  0  0  0  0  0  0
    0.6788   -3.2356    0.0000 C   0  0  0  0  0  0  0  0  0  0  0  0
    6.5005   -1.9906    0.0000 C   0  0  0  0  0  0  0  0  0  0  0  0
    0.7288   -1.8032    0.0000 C   0  0  0  0  0  0  0  0  0  0  0  0
  2  1  1  0  0  0  0
  3  1  1  0  0  0  0
  4  2  1  0  0  0  0
  5  3  1  0  0  0  0
  6  8  1  0  0  0  0
  7  9  1  0  0  0  0
  8  4  2  0  0  0  0
  9  5  2  0  0  0  0
 10  6  1  0  0  0  0
 11  7  1  0  0  0  0
 12  3  2  0  0  0  0
 13  2  2  0  0  0  0
 14 11  1  0  0  0  0
 15 10  1  0  0  0  0
 16 26  2  0  0  0  0
 17 25  1  0  0  0  0
 18 17  1  0  0  0  0
 19 16  1  0  0  0  0
 20 14  2  0  0  0  0
 21 15  1  0  0  0  0
 22 14  1  0  0  0  0
 23 15  2  0  0  0  0
 24 21  2  0  0  0  0
 25 22  2  0  0  0  0
 26 23  1  0  0  0  0
 27 20  1  0  0  0  0
  4  5  1  0  0  0  0
  6  7  2  0  0  0  0
 17 27  2  0  0  0  0
 16 24  1  0  0  0  0
M  END
>  <Mol Weight>
581.1451

>  <Formula>
C20H13I2N3O2

>  <chembl_id>
CHEMBL8163

$$$$

  Mrv0541 06201412482D          

 46 51  0  0  0  0            999 V2000
    5.1307  -23.1161    0.0000 C   0  0  0  0  0  0  0  0  0  0  0  0
    5.9054  -22.8384    0.0000 C   0  0  2  0  0  0  0  0  0  0  0  0
    5.8815  -22.0158    0.0000 O   0  0  0  0  0  0  0  0  0  0  0  0
    5.0919  -21.7816    0.0000 C   0  0  0  0  0  0  0  0  0  0  0  0
    4.6258  -22.4624    0.0000 C   0  0  1  0  0  0  0  0  0  0  0  0
    4.8134  -21.0063    0.0000 O   0  0  0  0  0  0  0  0  0  0  0  0
    0.0438  -24.7529    0.0000 C   0  0  0  0  0  0  0  0  0  0  0  0
    0.0438  -25.5761    0.0000 C   0  0  1  0  0  0  0  0  0  0  0  0
    0.7543  -25.9855    0.0000 C   0  0  0  0  0  0  0  0  0  0  0  0
    0.7543  -24.3351    0.0000 C   0  0  0  0  0  0  0  0  0  0  0  0
    1.4690  -24.7529    0.0000 C   0  0  1  0  0  0  0  0  0  0  0  0
    1.4706  -25.5761    0.0000 C   0  0  1  0  0  0  0  0  0  0  0  0
    2.1796  -25.9869    0.0000 C   0  0  0  0  0  0  0  0  0  0  0  0
    2.8981  -25.5775    0.0000 C   0  0  0  0  0  0  0  0  0  0  0  0
    2.1806  -24.3366    0.0000 C   0  0  2  0  0  0  0  0  0  0  0  0
    2.8935  -24.7477    0.0000 C   0  0  2  0  0  0  0  0  0  0  0  0
    2.8916  -23.1002    0.0000 C   0  0  0  0  0  0  0  0  0  0  0  0
    2.1750  -23.5141    0.0000 C   0  0  0  0  0  0  0  0  0  0  0  0
    3.6046  -23.5156    0.0000 C   0  0  1  0  0  0  0  0  0  0  0  0
    3.6068  -24.3377    0.0000 C   0  0  1  0  0  0  0  0  0  0  0  0
    4.3936  -24.5920    0.0000 C   0  0  0  0  0  0  0  0  0  0  0  0
    4.8792  -23.9232    0.0000 C   0  0  0  0  0  0  0  0  0  0  0  0
    4.3901  -23.2573    0.0000 C   0  0  2  0  0  0  0  0  0  0  0  0
    1.4620  -23.9256    0.0000 C   0  0  0  0  0  0  0  0  0  0  0  0
    2.8887  -23.9193    0.0000 C   0  0  0  0  0  0  0  0  0  0  0  0
    2.1732  -25.1582    0.0000 H   0  0  0  0  0  0  0  0  0  0  0  0
    3.5999  -25.1645    0.0000 H   0  0  0  0  0  0  0  0  0  0  0  0
    3.3868  -22.7121    0.0000 H   0  0  0  0  0  0  0  0  0  0  0  0
    6.5891  -23.3066    0.0000 C   0  0  0  0  0  0  0  0  0  0  0  0
    7.3316  -22.9512    0.0000 C   0  0  0  0  0  0  0  0  0  0  0  0
    8.0153  -23.4194    0.0000 C   0  0  0  0  0  0  0  0  0  0  0  0
    7.3988  -22.1276    0.0000 C   0  0  0  0  0  0  0  0  0  0  0  0
    1.3354  -26.5679    0.0000 C   0  0  0  0  0  0  0  0  0  0  0  0
    0.1641  -26.5679    0.0000 C   0  0  0  0  0  0  0  0  0  0  0  0
    1.6836  -26.3696    0.0000 H   0  0  0  0  0  0  0  0  0  0  0  0
    5.1874  -23.4720    0.0000 H   0  0  0  0  0  0  0  0  0  0  0  0
   -0.6688  -25.9879    0.0000 O   0  0  0  0  0  0  0  0  0  0  0  0
   -1.3819  -25.5767    0.0000 C   0  0  0  0  0  0  0  0  0  0  0  0
   -2.0945  -25.9885    0.0000 C   0  0  0  0  0  0  0  0  0  0  0  0
   -1.3822  -24.7536    0.0000 O   0  0  0  0  0  0  0  0  0  0  0  0
   -2.8038  -25.5755    0.0000 N   0  0  0  0  0  0  0  0  0  0  0  0
   -3.5159  -25.9866    0.0000 C   0  0  0  0  0  0  0  0  0  0  0  0
   -3.5160  -26.8106    0.0000 C   0  0  0  0  0  0  0  0  0  0  0  0
   -2.7981  -27.2216    0.0000 C   0  0  0  0  0  0  0  0  0  0  0  0
   -2.0888  -26.8081    0.0000 C   0  0  0  0  0  0  0  0  0  0  0  0
    3.7991  -22.4882    0.0000 O   0  0  0  0  0  0  0  0  0  0  0  0
  8  9  1  0  0  0  0
  9 12  1  0  0  0  0
 11 10  1  0  0  0  0
 11 12  1  0  0  0  0
 11 15  1  0  0  0  0
 12 13  1  0  0  0  0
 13 14  1  0  0  0  0
 14 16  1  0  0  0  0
 15 16  1  0  0  0  0
 15 18  1  0  0  0  0
 16 20  1  0  0  0  0
 19 17  1  0  0  0  0
 17 18  1  0  0  0  0
 19 20  1  0  0  0  0
 20 21  1  0  0  0  0
 21 22  1  0  0  0  0
 22 23  1  0  0  0  0
 23 19  1  0  0  0  0
 11 24  1  1  0  0  0
 16 25  1  1  0  0  0
 15 26  1  6  0  0  0
 20 27  1  6  0  0  0
 23  5  1  0  0  0  0
 19 28  1  1  0  0  0
  2 29  1  6  0  0  0
 29 30  2  0  0  0  0
 30 31  1  0  0  0  0
 30 32  1  0  0  0  0
  9 33  1  0  0  0  0
  9 34  1  0  0  0  0
 12 35  1  6  0  0  0
 23 36  1  6  0  0  0
  8 37  1  1  0  0  0
  1  2  1  0  0  0  0
 37 38  1  0  0  0  0
  2  3  1  0  0  0  0
 38 39  1  0  0  0  0
  3  4  1  0  0  0  0
 38 40  2  0  0  0  0
  4  5  1  0  0  0  0
 39 41  2  0  0  0  0
  5  1  1  0  0  0  0
 41 42  1  0  0  0  0
  4  6  2  0  0  0  0
 42 43  2  0  0  0  0
 43 44  1  0  0  0  0
  7  8  1  0  0  0  0
 44 45  2  0  0  0  0
 45 39  1  0  0  0  0
  7 10  1  0  0  0  0
  5 46  1  1  0  0  0
M  END
>  <Mol Weight>
563.7673

>  <Formula>
C35H49NO5

>  <chembl_id>
CHEMBL1163227

$$$$

  Mrv0541 06201412482D          

 41 44  0  0  1  0            999 V2000
   10.3690   -8.4244    0.0000 N   0  0  0  0  0  0  0  0  0  0  0  0
    9.5798   -8.6361    0.0000 C   0  0  0  0  0  0  0  0  0  0  0  0
   10.1631   -7.6238    0.0000 C   0  0  0  0  0  0  0  0  0  0  0  0
    9.3739   -7.8411    0.0000 C   0  0  2  0  0  0  0  0  0  0  0  0
   11.1755   -8.6361    0.0000 C   0  0  0  0  0  0  0  0  0  0  0  0
   10.7465   -7.0404    0.0000 S   0  0  0  0  0  0  0  0  0  0  0  0
   11.7588   -8.0527    0.0000 C   0  0  0  0  0  0  0  0  0  0  0  0
    6.5085   -8.6704    0.0000 C   0  0  0  0  0  0  0  0  0  0  0  0
    8.6533   -7.4293    0.0000 N   0  0  0  0  0  0  0  0  0  0  0  0
    6.5085   -7.8469    0.0000 N   0  0  0  0  0  0  0  0  0  0  0  0
    7.2292   -7.4351    0.0000 C   0  0  0  0  0  0  0  0  0  0  0  0
    7.9326   -7.8411    0.0000 C   0  0  0  0  0  0  0  0  0  0  0  0
   11.3813   -9.4368    0.0000 C   0  0  0  0  0  0  0  0  0  0  0  0
   11.5358   -7.2577    0.0000 C   0  0  0  0  0  0  0  0  0  0  0  0
    5.8051   -9.0822    0.0000 N   0  0  0  0  0  0  0  0  0  0  0  0
    9.1680   -9.3510    0.0000 O   0  0  0  0  0  0  0  0  0  0  0  0
    5.8051   -7.4351    0.0000 O   0  0  0  0  0  0  0  0  0  0  0  0
   12.5481   -8.2700    0.0000 C   0  0  0  0  0  0  0  0  0  0  0  0
   13.9207   -7.9097    0.0000 C   0  0  0  0  0  0  0  0  0  0  0  0
    7.2292   -9.0822    0.0000 O   0  0  0  0  0  0  0  0  0  0  0  0
   12.1706   -9.6426    0.0000 O   0  0  0  0  0  0  0  0  0  0  0  0
    7.9326   -8.6647    0.0000 O   0  0  0  0  0  0  0  0  0  0  0  0
   13.1314   -7.6867    0.0000 O   0  0  0  0  0  0  0  0  0  0  0  0
   14.1437   -8.6990    0.0000 O   0  0  0  0  0  0  0  0  0  0  0  0
    5.8051   -9.9058    0.0000 C   0  0  0  0  0  0  0  0  0  0  0  0
   10.7980  -10.0201    0.0000 O   0  0  0  0  0  0  0  0  0  0  0  0
    5.0845   -7.8582    0.0000 C   0  0  0  0  0  0  0  0  0  0  0  0
    2.9397   -6.6115    0.0000 C   0  0  0  0  0  0  0  0  0  0  0  0
    4.3638   -7.4465    0.0000 C   0  0  0  0  0  0  0  0  0  0  0  0
    2.2363   -6.2111    0.0000 Cl  0  0  0  0  0  0  0  0  0  0  0  0
    2.9397   -7.4465    0.0000 C   0  0  0  0  0  0  0  0  0  0  0  0
    3.6604   -6.1997    0.0000 C   0  0  0  0  0  0  0  0  0  0  0  0
    4.3638   -6.6115    0.0000 C   0  0  0  0  0  0  0  0  0  0  0  0
    3.6604   -7.8582    0.0000 C   0  0  0  0  0  0  0  0  0  0  0  0
    5.1016  -10.3290    0.0000 C   0  0  0  0  0  0  0  0  0  0  0  0
   14.5041   -7.3264    0.0000 C   0  0  0  0  0  0  0  0  0  0  0  0
    4.3810   -9.9172    0.0000 C   0  0  0  0  0  0  0  0  0  0  0  0
    5.1188  -11.1411    0.0000 C   0  0  0  0  0  0  0  0  0  0  0  0
    4.3981  -11.5643    0.0000 C   0  0  0  0  0  0  0  0  0  0  0  0
    3.6775  -10.3290    0.0000 C   0  0  0  0  0  0  0  0  0  0  0  0
    3.6775  -11.1583    0.0000 C   0  0  0  0  0  0  0  0  0  0  0  0
  2  1  1  0  0  0  0
  3  1  1  0  0  0  0
  4  3  1  0  0  0  0
  5  1  1  0  0  0  0
  6  3  1  0  0  0  0
  7  5  2  0  0  0  0
  8 10  1  0  0  0  0
  4  9  1  1  0  0  0
 10 11  1  0  0  0  0
 11 12  1  0  0  0  0
 12  9  1  0  0  0  0
 13  5  1  0  0  0  0
 14  7  1  0  0  0  0
 15  8  1  0  0  0  0
 16  2  2  0  0  0  0
 17 10  1  0  0  0  0
 18  7  1  0  0  0  0
 19 23  1  0  0  0  0
 20  8  2  0  0  0  0
 21 13  2  0  0  0  0
 22 12  2  0  0  0  0
 23 18  1  0  0  0  0
 24 19  2  0  0  0  0
 25 15  1  0  0  0  0
 26 13  1  0  0  0  0
 27 17  1  0  0  0  0
 28 31  2  0  0  0  0
 29 27  1  0  0  0  0
 30 28  1  0  0  0  0
 31 34  1  0  0  0  0
 32 33  2  0  0  0  0
 33 29  1  0  0  0  0
 34 29  2  0  0  0  0
 35 25  1  0  0  0  0
 36 19  1  0  0  0  0
 37 35  2  0  0  0  0
 38 35  1  0  0  0  0
 39 38  2  0  0  0  0
 40 37  1  0  0  0  0
 41 39  1  0  0  0  0
  2  4  1  0  0  0  0
 14  6  1  0  0  0  0
 32 28  1  0  0  0  0
 40 41  2  0  0  0  0
M  END
>  <Mol Weight>
603.043

>  <Formula>
C27H27ClN4O8S

>  <chembl_id>
CHEMBL8864

$$$$

  Mrv0541 06201412482D          

 39 42  0  0  1  0            999 V2000
   -0.6716   -2.2693    0.0000 S   0  0  0  0  0  0  0  0  0  0  0  0
    0.0543   -1.8689    0.0000 N   0  0  0  0  0  0  0  0  0  0  0  0
    0.0793   -1.0429    0.0000 C   0  0  0  0  0  0  0  0  0  0  0  0
   -1.3849   -1.8521    0.0000 C   0  0  0  0  0  0  0  0  0  0  0  0
    0.8051   -0.6508    0.0000 C   0  0  0  0  0  0  0  0  0  0  0  0
    2.9409   -1.1180    0.0000 C   0  0  0  0  0  0  0  0  0  0  0  0
   -1.3849   -1.0179    0.0000 C   0  0  0  0  0  0  0  0  0  0  0  0
   -2.1024   -2.2651    0.0000 C   0  0  0  0  0  0  0  0  0  0  0  0
   -0.6257   -0.6174    0.0000 C   0  0  0  0  0  0  0  0  0  0  0  0
    2.2318   -0.6883    0.0000 C   0  0  1  0  0  0  0  0  0  0  0  0
    1.5059   -1.0804    0.0000 N   0  0  0  0  0  0  0  0  0  0  0  0
    3.6667   -0.7258    0.0000 C   0  0  0  0  0  0  0  0  0  0  0  0
   -0.1251   -2.8950    0.0000 O   0  0  0  0  0  0  0  0  0  0  0  0
   -1.2973   -2.8074    0.0000 O   0  0  0  0  0  0  0  0  0  0  0  0
   -2.8158   -1.8521    0.0000 C   0  0  0  0  0  0  0  0  0  0  0  0
   -2.8158   -1.0304    0.0000 C   0  0  0  0  0  0  0  0  0  0  0  0
   -2.1024   -0.6049    0.0000 C   0  0  0  0  0  0  0  0  0  0  0  0
    2.9201   -1.9439    0.0000 O   0  0  0  0  0  0  0  0  0  0  0  0
    0.8260    0.1752    0.0000 O   0  0  0  0  0  0  0  0  0  0  0  0
    2.2568    0.1377    0.0000 C   0  0  0  0  0  0  0  0  0  0  0  0
   -3.5249   -2.2651    0.0000 O   0  0  0  0  0  0  0  0  0  0  0  0
   -3.5249   -0.6174    0.0000 O   0  0  0  0  0  0  0  0  0  0  0  0
    3.6835    0.1001    0.0000 O   0  0  0  0  0  0  0  0  0  0  0  0
    4.3717   -1.1555    0.0000 N   0  0  0  0  0  0  0  0  0  0  0  0
    0.7676   -2.2818    0.0000 C   0  0  0  0  0  0  0  0  0  0  0  0
    1.7312    0.7384    0.0000 C   0  0  0  0  0  0  0  0  0  0  0  0
   -4.2382   -1.8521    0.0000 C   0  0  0  0  0  0  0  0  0  0  0  0
   -4.2382   -1.0304    0.0000 C   0  0  0  0  0  0  0  0  0  0  0  0
    5.0976   -0.7551    0.0000 C   0  0  0  0  0  0  0  0  0  0  0  0
    1.9940    1.4975    0.0000 C   0  0  0  0  0  0  0  0  0  0  0  0
    0.9511    0.5840    0.0000 C   0  0  0  0  0  0  0  0  0  0  0  0
    0.7676   -3.1078    0.0000 C   0  0  0  0  0  0  0  0  0  0  0  0
    5.7984   -1.1889    0.0000 C   0  0  0  0  0  0  0  0  0  0  0  0
    7.2250   -1.2264    0.0000 C   0  0  0  0  0  0  0  0  0  0  0  0
    6.5242   -0.7926    0.0000 C   0  0  0  0  0  0  0  0  0  0  0  0
    7.9509   -0.8302    0.0000 C   0  0  0  0  0  0  0  0  0  0  0  0
    0.4255    1.1847    0.0000 C   0  0  0  0  0  0  0  0  0  0  0  0
    1.4684    2.0982    0.0000 C   0  0  0  0  0  0  0  0  0  0  0  0
    0.6800    1.9397    0.0000 C   0  0  0  0  0  0  0  0  0  0  0  0
  2  1  1  0  0  0  0
  3  2  1  0  0  0  0
  4  1  1  0  0  0  0
  5  3  1  0  0  0  0
  6 10  1  0  0  0  0
  7  4  1  0  0  0  0
  8  4  2  0  0  0  0
  9  7  1  0  0  0  0
 10 11  1  0  0  0  0
 11  5  1  0  0  0  0
 12  6  1  0  0  0  0
 13  1  2  0  0  0  0
 14  1  2  0  0  0  0
 15  8  1  0  0  0  0
 16 15  2  0  0  0  0
 17  7  2  0  0  0  0
 18  6  2  0  0  0  0
 19  5  2  0  0  0  0
 10 20  1  1  0  0  0
 21 15  1  0  0  0  0
 22 16  1  0  0  0  0
 23 12  2  0  0  0  0
 24 12  1  0  0  0  0
 25  2  1  0  0  0  0
 26 20  1  0  0  0  0
 27 21  1  0  0  0  0
 28 27  1  0  0  0  0
 29 24  1  0  0  0  0
 30 26  2  0  0  0  0
 31 26  1  0  0  0  0
 32 25  1  0  0  0  0
 33 29  1  0  0  0  0
 34 35  1  0  0  0  0
 35 33  1  0  0  0  0
 36 34  1  0  0  0  0
 37 31  2  0  0  0  0
 38 30  1  0  0  0  0
 39 37  1  0  0  0  0
 17 16  1  0  0  0  0
  9  3  1  0  0  0  0
 28 22  1  0  0  0  0
 38 39  2  0  0  0  0
M  END
>  <Mol Weight>
557.658

>  <Formula>
C28H35N3O7S

>  <chembl_id>
CHEMBL8741

$$$$

  Mrv0541 06201412482D          

 41 42  0  0  1  0            999 V2000
    6.6875   -9.7000    0.0000 N   0  0  0  0  0  0  0  0  0  0  0  0
    5.9667  -10.1125    0.0000 C   0  0  0  0  0  0  0  0  0  0  0  0
    5.9667   -2.6875    0.0000 C   0  0  0  0  0  0  0  0  0  0  0  0
    7.4000  -10.1125    0.0000 C   0  0  2  0  0  0  0  0  0  0  0  0
    8.1167   -9.7000    0.0000 C   0  0  0  0  0  0  0  0  0  0  0  0
    3.8292   -8.8750    0.0000 C   0  0  0  0  0  0  0  0  0  0  0  0
    5.2542   -9.7000    0.0000 C   0  0  1  0  0  0  0  0  0  0  0  0
    5.9667   -3.5125    0.0000 C   0  0  0  0  0  0  0  0  0  0  0  0
    4.5417  -10.1125    0.0000 C   0  0  0  0  0  0  0  0  0  0  0  0
    7.4000  -10.9375    0.0000 C   0  0  0  0  0  0  0  0  0  0  0  0
    6.6792   -2.2750    0.0000 N   0  0  0  0  0  0  0  0  0  0  0  0
    3.8292   -9.7000    0.0000 C   0  0  2  0  0  0  0  0  0  0  0  0
    5.2542   -2.2792    0.0000 O   0  0  0  0  0  0  0  0  0  0  0  0
    5.9667   -5.1625    0.0000 C   0  0  0  0  0  0  0  0  0  0  0  0
    5.9750   -5.9875    0.0000 C   0  0  0  0  0  0  0  0  0  0  0  0
    5.9667  -10.9375    0.0000 O   0  0  0  0  0  0  0  0  0  0  0  0
    8.1167   -8.8750    0.0000 O   0  0  0  0  0  0  0  0  0  0  0  0
    3.1167   -8.4542    0.0000 O   0  0  0  0  0  0  0  0  0  0  0  0
    6.6875   -3.9250    0.0000 C   0  0  0  0  0  0  0  0  0  0  0  0
    5.2542   -3.9292    0.0000 C   0  0  0  0  0  0  0  0  0  0  0  0
    6.6875   -4.7500    0.0000 C   0  0  0  0  0  0  0  0  0  0  0  0
    5.2542   -4.7542    0.0000 C   0  0  0  0  0  0  0  0  0  0  0  0
    5.2542   -8.8750    0.0000 C   0  0  0  0  0  0  0  0  0  0  0  0
    8.8292  -10.1125    0.0000 N   0  0  0  0  0  0  0  0  0  0  0  0
    6.6875   -6.4000    0.0000 C   0  0  0  0  0  0  0  0  0  0  0  0
    5.2542   -6.4042    0.0000 C   0  0  0  0  0  0  0  0  0  0  0  0
    4.5417   -8.4542    0.0000 O   0  0  0  0  0  0  0  0  0  0  0  0
    5.9667   -7.6375    0.0000 C   0  0  0  0  0  0  0  0  0  0  0  0
    5.9667   -8.4625    0.0000 C   0  0  0  0  0  0  0  0  0  0  0  0
    5.2625   -7.2250    0.0000 C   0  0  0  0  0  0  0  0  0  0  0  0
    6.6875   -7.2250    0.0000 C   0  0  0  0  0  0  0  0  0  0  0  0
    6.6875  -11.3500    0.0000 C   0  0  0  0  0  0  0  0  0  0  0  0
    8.1167  -11.3500    0.0000 C   0  0  0  0  0  0  0  0  0  0  0  0
    7.3917  -11.7542    0.0000 C   0  0  0  0  0  0  0  0  0  0  0  0
    7.4000   -2.6792    0.0000 C   0  0  0  0  0  0  0  0  0  0  0  0
    6.6792   -1.4500    0.0000 C   0  0  0  0  0  0  0  0  0  0  0  0
    3.1125  -10.1125    0.0000 C   0  0  0  0  0  0  0  0  0  0  0  0
    9.5417   -9.7000    0.0000 C   0  0  0  0  0  0  0  0  0  0  0  0
    2.4000   -9.7000    0.0000 C   0  0  0  0  0  0  0  0  0  0  0  0
    1.6875  -10.1125    0.0000 C   0  0  0  0  0  0  0  0  0  0  0  0
    0.9667   -9.7000    0.0000 C   0  0  0  0  0  0  0  0  0  0  0  0
  2  1  1  0  0  0  0
  3  8  1  0  0  0  0
  4  1  1  0  0  0  0
  5  4  1  0  0  0  0
 12  6  1  6  0  0  0
  7  2  1  0  0  0  0
  8 20  1  0  0  0  0
  9  7  1  0  0  0  0
  4 10  1  6  0  0  0
 11  3  1  0  0  0  0
 12  9  1  0  0  0  0
 13  3  2  0  0  0  0
 14 15  1  0  0  0  0
 15 25  2  0  0  0  0
 16  2  2  0  0  0  0
 17  5  2  0  0  0  0
 18  6  2  0  0  0  0
 19 21  1  0  0  0  0
 20 22  2  0  0  0  0
 21 14  2  0  0  0  0
 22 14  1  0  0  0  0
  7 23  1  1  0  0  0
 24  5  1  0  0  0  0
 25 31  1  0  0  0  0
 26 30  2  0  0  0  0
 27  6  1  0  0  0  0
 28 29  1  0  0  0  0
 29 23  1  0  0  0  0
 30 28  1  0  0  0  0
 31 28  2  0  0  0  0
 32 10  1  0  0  0  0
 33 10  1  0  0  0  0
 34 10  1  0  0  0  0
 35 11  1  0  0  0  0
 36 11  1  0  0  0  0
 37 12  1  0  0  0  0
 38 24  1  0  0  0  0
 39 37  1  0  0  0  0
 40 39  1  0  0  0  0
 41 40  1  0  0  0  0
 15 26  1  0  0  0  0
  8 19  2  0  0  0  0
M  END
>  <Mol Weight>
565.7434

>  <Formula>
C33H47N3O5

>  <chembl_id>
CHEMBL8868

$$$$

  Mrv0541 06201412482D          

 40 43  0  0  1  0            999 V2000
   10.3870   -8.4448    0.0000 N   0  0  0  0  0  0  0  0  0  0  0  0
    9.5964   -8.6625    0.0000 C   0  0  0  0  0  0  0  0  0  0  0  0
   10.1808   -7.6484    0.0000 C   0  0  0  0  0  0  0  0  0  0  0  0
    9.3901   -7.8605    0.0000 C   0  0  2  0  0  0  0  0  0  0  0  0
   11.1948   -8.6625    0.0000 C   0  0  0  0  0  0  0  0  0  0  0  0
   10.7651   -7.0641    0.0000 S   0  0  0  0  0  0  0  0  0  0  0  0
   11.7792   -8.0781    0.0000 C   0  0  0  0  0  0  0  0  0  0  0  0
    6.5198   -8.6969    0.0000 C   0  0  0  0  0  0  0  0  0  0  0  0
    6.5198   -7.8719    0.0000 N   0  0  0  0  0  0  0  0  0  0  0  0
    8.6683   -7.4480    0.0000 N   0  0  0  0  0  0  0  0  0  0  0  0
    7.2417   -7.4594    0.0000 C   0  0  0  0  0  0  0  0  0  0  0  0
    7.9464   -7.8605    0.0000 C   0  0  0  0  0  0  0  0  0  0  0  0
   11.4011   -9.4589    0.0000 C   0  0  0  0  0  0  0  0  0  0  0  0
    5.8151   -9.1094    0.0000 N   0  0  0  0  0  0  0  0  0  0  0  0
   11.5558   -7.2761    0.0000 C   0  0  0  0  0  0  0  0  0  0  0  0
    9.1839   -9.3730    0.0000 O   0  0  0  0  0  0  0  0  0  0  0  0
    5.8151   -7.4594    0.0000 O   0  0  0  0  0  0  0  0  0  0  0  0
   12.5698   -8.2901    0.0000 C   0  0  0  0  0  0  0  0  0  0  0  0
   13.9448   -7.9292    0.0000 C   0  0  0  0  0  0  0  0  0  0  0  0
    7.2417   -9.1094    0.0000 O   0  0  0  0  0  0  0  0  0  0  0  0
   12.1917   -9.6651    0.0000 O   0  0  0  0  0  0  0  0  0  0  0  0
    7.9464   -8.6855    0.0000 O   0  0  0  0  0  0  0  0  0  0  0  0
   13.1542   -7.7058    0.0000 O   0  0  0  0  0  0  0  0  0  0  0  0
   14.1683   -8.7198    0.0000 O   0  0  0  0  0  0  0  0  0  0  0  0
    5.8151   -9.9344    0.0000 C   0  0  0  0  0  0  0  0  0  0  0  0
   10.8167  -10.0433    0.0000 O   0  0  0  0  0  0  0  0  0  0  0  0
    5.0933   -7.8776    0.0000 C   0  0  0  0  0  0  0  0  0  0  0  0
    2.9448   -6.6344    0.0000 C   0  0  0  0  0  0  0  0  0  0  0  0
    4.3714   -7.4651    0.0000 C   0  0  0  0  0  0  0  0  0  0  0  0
    2.2401   -6.2276    0.0000 Cl  0  0  0  0  0  0  0  0  0  0  0  0
    2.9448   -7.4651    0.0000 C   0  0  0  0  0  0  0  0  0  0  0  0
    3.6667   -6.2219    0.0000 C   0  0  0  0  0  0  0  0  0  0  0  0
    4.3714   -6.6344    0.0000 C   0  0  0  0  0  0  0  0  0  0  0  0
    3.6667   -7.8776    0.0000 C   0  0  0  0  0  0  0  0  0  0  0  0
   14.5292   -7.3448    0.0000 C   0  0  0  0  0  0  0  0  0  0  0  0
    6.5370  -10.3297    0.0000 C   0  0  0  0  0  0  0  0  0  0  0  0
    5.1105  -10.3469    0.0000 C   0  0  0  0  0  0  0  0  0  0  0  0
    5.1105  -11.1605    0.0000 C   0  0  0  0  0  0  0  0  0  0  0  0
    6.5370  -11.1547    0.0000 C   0  0  0  0  0  0  0  0  0  0  0  0
    5.8323  -11.5730    0.0000 C   0  0  0  0  0  0  0  0  0  0  0  0
  2  1  1  0  0  0  0
  3  1  1  0  0  0  0
  4  3  1  0  0  0  0
  5  1  1  0  0  0  0
  6  3  1  0  0  0  0
  7  5  2  0  0  0  0
  8  9  1  0  0  0  0
  9 11  1  0  0  0  0
  4 10  1  1  0  0  0
 11 12  1  0  0  0  0
 12 10  1  0  0  0  0
 13  5  1  0  0  0  0
 14  8  1  0  0  0  0
 15  7  1  0  0  0  0
 16  2  2  0  0  0  0
 17  9  1  0  0  0  0
 18  7  1  0  0  0  0
 19 23  1  0  0  0  0
 20  8  2  0  0  0  0
 21 13  2  0  0  0  0
 22 12  2  0  0  0  0
 23 18  1  0  0  0  0
 24 19  2  0  0  0  0
 25 14  1  0  0  0  0
 26 13  1  0  0  0  0
 27 17  1  0  0  0  0
 28 31  2  0  0  0  0
 29 27  1  0  0  0  0
 30 28  1  0  0  0  0
 31 34  1  0  0  0  0
 32 33  2  0  0  0  0
 33 29  1  0  0  0  0
 34 29  2  0  0  0  0
 35 19  1  0  0  0  0
 36 25  1  0  0  0  0
 37 25  2  0  0  0  0
 38 37  1  0  0  0  0
 39 36  2  0  0  0  0
 40 38  2  0  0  0  0
  4  2  1  0  0  0  0
 15  6  1  0  0  0  0
 32 28  1  0  0  0  0
 39 40  1  0  0  0  0
M  END
>  <Mol Weight>
589.017

>  <Formula>
C26H25ClN4O8S

>  <chembl_id>
CHEMBL8774

$$$$

  Mrv0541 06201412482D          

 37 41  0  0  0  0            999 V2000
    1.8625   -3.8167    0.0000 S   0  0  0  0  0  0  0  0  0  0  0  0
    1.0500   -4.0042    0.0000 N   0  0  0  0  0  0  0  0  0  0  0  0
   -0.6208   -4.8042    0.0000 N   0  0  0  0  0  0  0  0  0  0  0  0
   -2.0333   -5.0167    0.0000 C   0  0  0  0  0  0  0  0  0  0  0  0
    2.6667   -3.6417    0.0000 C   0  0  0  0  0  0  0  0  0  0  0  0
   -1.2625   -5.3167    0.0000 C   0  0  0  0  0  0  0  0  0  0  0  0
   -0.8000   -4.0042    0.0000 C   0  0  0  0  0  0  0  0  0  0  0  0
    0.8667   -4.8042    0.0000 C   0  0  0  0  0  0  0  0  0  0  0  0
    0.1167   -5.1625    0.0000 C   0  0  0  0  0  0  0  0  0  0  0  0
   -0.2875   -3.3625    0.0000 C   0  0  0  0  0  0  0  0  0  0  0  0
    0.5375   -3.3625    0.0000 C   0  0  0  0  0  0  0  0  0  0  0  0
   -2.9708   -4.0667    0.0000 N   0  0  0  0  0  0  0  0  0  0  0  0
   -2.1583   -4.2042    0.0000 C   0  0  0  0  0  0  0  0  0  0  0  0
    2.9167   -2.8542    0.0000 C   0  0  0  0  0  0  0  0  0  0  0  0
   -2.7708   -5.3875    0.0000 N   0  0  0  0  0  0  0  0  0  0  0  0
   -3.3458   -4.7917    0.0000 C   0  0  0  0  0  0  0  0  0  0  0  0
    1.6792   -3.0125    0.0000 O   0  0  0  0  0  0  0  0  0  0  0  0
    2.0417   -4.6292    0.0000 O   0  0  0  0  0  0  0  0  0  0  0  0
    3.7250   -2.6750    0.0000 C   0  0  0  0  0  0  0  0  0  0  0  0
    4.2792   -3.2792    0.0000 C   0  0  0  0  0  0  0  0  0  0  0  0
    3.2250   -4.2417    0.0000 C   0  0  0  0  0  0  0  0  0  0  0  0
    0.1125   -5.9875    0.0000 C   0  0  0  0  0  0  0  0  0  0  0  0
    4.0167   -4.0667    0.0000 C   0  0  0  0  0  0  0  0  0  0  0  0
    3.9750   -1.8792    0.0000 Cl  0  0  0  0  0  0  0  0  0  0  0  0
    5.0917   -3.1042    0.0000 Cl  0  0  0  0  0  0  0  0  0  0  0  0
    0.8167   -6.4042    0.0000 C   0  0  0  0  0  0  0  0  0  0  0  0
   -0.5875   -2.5917    0.0000 C   0  0  0  0  0  0  0  0  0  0  0  0
    0.8167   -7.2292    0.0000 C   0  0  0  0  0  0  0  0  0  0  0  0
   -1.6208   -3.8792    0.0000 C   0  0  0  0  0  0  0  0  0  0  0  0
   -2.1583   -3.3792    0.0000 C   0  0  0  0  0  0  0  0  0  0  0  0
    1.5292   -7.6417    0.0000 C   0  0  0  0  0  0  0  0  0  0  0  0
    0.1000   -7.6417    0.0000 C   0  0  0  0  0  0  0  0  0  0  0  0
   -1.4083   -2.4667    0.0000 C   0  0  0  0  0  0  0  0  0  0  0  0
   -1.9208   -3.1125    0.0000 C   0  0  0  0  0  0  0  0  0  0  0  0
    0.1000   -8.4667    0.0000 C   0  0  0  0  0  0  0  0  0  0  0  0
    1.5292   -8.4667    0.0000 C   0  0  0  0  0  0  0  0  0  0  0  0
    0.8167   -8.8792    0.0000 C   0  0  0  0  0  0  0  0  0  0  0  0
  2  1  1  0  0  0  0
  3  9  1  0  0  0  0
  4  6  1  0  0  0  0
  5  1  1  0  0  0  0
  6  3  1  0  0  0  0
  7 10  2  0  0  0  0
  8  2  1  0  0  0  0
  9  8  1  0  0  0  0
 10 11  1  0  0  0  0
 11  2  1  0  0  0  0
 12 13  1  0  0  0  0
 13  4  2  0  0  0  0
 14  5  1  0  0  0  0
 15  4  1  0  0  0  0
 16 15  2  0  0  0  0
 17  1  2  0  0  0  0
 18  1  2  0  0  0  0
 19 14  2  0  0  0  0
 20 23  2  0  0  0  0
 21  5  2  0  0  0  0
 22  9  1  0  0  0  0
 23 21  1  0  0  0  0
 24 19  1  0  0  0  0
 25 20  1  0  0  0  0
 26 22  1  0  0  0  0
 27 10  1  0  0  0  0
 28 26  1  0  0  0  0
 29  7  1  0  0  0  0
 30 13  1  0  0  0  0
 31 28  1  0  0  0  0
 32 28  2  0  0  0  0
 33 27  2  0  0  0  0
 34 33  1  0  0  0  0
 35 32  1  0  0  0  0
 36 31  2  0  0  0  0
 37 35  2  0  0  0  0
 19 20  1  0  0  0  0
  7  3  1  0  0  0  0
 29 34  2  0  0  0  0
 12 16  1  0  0  0  0
 36 37  1  0  0  0  0
M  END
>  <Mol Weight>
555.519

>  <Formula>
C28H28Cl2N4O2S

>  <chembl_id>
CHEMBL8414

$$$$

  Mrv0541 06201412482D          

 40 43  0  0  1  0            999 V2000
    9.8488   -8.4133    0.0000 N   0  0  0  0  0  0  0  0  0  0  0  0
    9.0595   -8.6305    0.0000 C   0  0  0  0  0  0  0  0  0  0  0  0
    9.6315   -7.6182    0.0000 C   0  0  0  0  0  0  0  0  0  0  0  0
    8.8422   -7.8299    0.0000 C   0  0  2  0  0  0  0  0  0  0  0  0
   10.6438   -8.6305    0.0000 C   0  0  0  0  0  0  0  0  0  0  0  0
   10.2149   -7.0348    0.0000 S   0  0  0  0  0  0  0  0  0  0  0  0
   11.2272   -8.0472    0.0000 C   0  0  0  0  0  0  0  0  0  0  0  0
    5.9882   -8.6649    0.0000 C   0  0  0  0  0  0  0  0  0  0  0  0
    5.9882   -7.8413    0.0000 N   0  0  0  0  0  0  0  0  0  0  0  0
    8.1330   -7.4181    0.0000 N   0  0  0  0  0  0  0  0  0  0  0  0
    6.6974   -7.4295    0.0000 C   0  0  0  0  0  0  0  0  0  0  0  0
    7.4123   -7.8299    0.0000 C   0  0  0  0  0  0  0  0  0  0  0  0
   10.8497   -9.4256    0.0000 C   0  0  0  0  0  0  0  0  0  0  0  0
    5.2847   -9.0767    0.0000 N   0  0  0  0  0  0  0  0  0  0  0  0
   11.0155   -7.2465    0.0000 C   0  0  0  0  0  0  0  0  0  0  0  0
    8.6477   -9.3398    0.0000 O   0  0  0  0  0  0  0  0  0  0  0  0
    5.2733   -7.4295    0.0000 O   0  0  0  0  0  0  0  0  0  0  0  0
    3.8434   -7.4352    0.0000 C   0  0  0  0  0  0  0  0  0  0  0  0
   12.0279   -8.2588    0.0000 C   0  0  0  0  0  0  0  0  0  0  0  0
   13.4005   -7.8985    0.0000 C   0  0  0  0  0  0  0  0  0  0  0  0
    6.7088   -9.0767    0.0000 O   0  0  0  0  0  0  0  0  0  0  0  0
    4.5641   -7.8470    0.0000 C   0  0  0  0  0  0  0  0  0  0  0  0
   11.6504   -9.6315    0.0000 O   0  0  0  0  0  0  0  0  0  0  0  0
    7.4123   -8.6535    0.0000 O   0  0  0  0  0  0  0  0  0  0  0  0
    3.1285   -7.8470    0.0000 C   0  0  0  0  0  0  0  0  0  0  0  0
   12.6112   -7.6755    0.0000 O   0  0  0  0  0  0  0  0  0  0  0  0
   13.6122   -8.6878    0.0000 O   0  0  0  0  0  0  0  0  0  0  0  0
    5.2847   -9.9003    0.0000 C   0  0  0  0  0  0  0  0  0  0  0  0
   10.2663  -10.0090    0.0000 O   0  0  0  0  0  0  0  0  0  0  0  0
    3.1285   -8.6706    0.0000 Cl  0  0  0  0  0  0  0  0  0  0  0  0
    3.8434   -6.6059    0.0000 C   0  0  0  0  0  0  0  0  0  0  0  0
   13.9839   -7.3151    0.0000 C   0  0  0  0  0  0  0  0  0  0  0  0
    2.4193   -7.4352    0.0000 C   0  0  0  0  0  0  0  0  0  0  0  0
    5.9940  -10.2949    0.0000 C   0  0  0  0  0  0  0  0  0  0  0  0
    4.5812  -10.3120    0.0000 C   0  0  0  0  0  0  0  0  0  0  0  0
    3.1285   -6.1827    0.0000 C   0  0  0  0  0  0  0  0  0  0  0  0
    2.4193   -6.6059    0.0000 C   0  0  0  0  0  0  0  0  0  0  0  0
    4.5812  -11.1242    0.0000 C   0  0  0  0  0  0  0  0  0  0  0  0
    6.0054  -11.1185    0.0000 C   0  0  0  0  0  0  0  0  0  0  0  0
    5.3019  -11.5360    0.0000 C   0  0  0  0  0  0  0  0  0  0  0  0
  2  1  1  0  0  0  0
  3  1  1  0  0  0  0
  4  3  1  0  0  0  0
  5  1  1  0  0  0  0
  6  3  1  0  0  0  0
  7  5  2  0  0  0  0
  8  9  1  0  0  0  0
  9 11  1  0  0  0  0
  4 10  1  1  0  0  0
 11 12  1  0  0  0  0
 12 10  1  0  0  0  0
 13  5  1  0  0  0  0
 14  8  1  0  0  0  0
 15  7  1  0  0  0  0
 16  2  2  0  0  0  0
 17  9  1  0  0  0  0
 18 22  1  0  0  0  0
 19  7  1  0  0  0  0
 20 26  1  0  0  0  0
 21  8  2  0  0  0  0
 22 17  1  0  0  0  0
 23 13  2  0  0  0  0
 24 12  2  0  0  0  0
 25 18  2  0  0  0  0
 26 19  1  0  0  0  0
 27 20  2  0  0  0  0
 28 14  1  0  0  0  0
 29 13  1  0  0  0  0
 30 25  1  0  0  0  0
 31 18  1  0  0  0  0
 32 20  1  0  0  0  0
 33 25  1  0  0  0  0
 34 28  1  0  0  0  0
 35 28  2  0  0  0  0
 36 31  2  0  0  0  0
 37 36  1  0  0  0  0
 38 35  1  0  0  0  0
 39 34  2  0  0  0  0
 40 38  2  0  0  0  0
  4  2  1  0  0  0  0
 15  6  1  0  0  0  0
 37 33  2  0  0  0  0
 39 40  1  0  0  0  0
M  END
>  <Mol Weight>
589.017

>  <Formula>
C26H25ClN4O8S

>  <chembl_id>
CHEMBL8502

$$$$

  Mrv0541 06201412482D          

 39 42  0  0  0  0            999 V2000
    4.8500    0.7333    0.0000 P   0  0  0  0  0  0  0  0  0  0  0  0
    4.4250    1.4500    0.0000 C   0  0  0  0  0  0  0  0  0  0  0  0
    1.5542   -1.0542    0.0000 C   0  0  0  0  0  0  0  0  0  0  0  0
    0.7292   -1.0542    0.0000 C   0  0  0  0  0  0  0  0  0  0  0  0
    3.1917   -4.7292    0.0000 C   0  0  0  0  0  0  0  0  0  0  0  0
    3.7042    1.0250    0.0000 C   0  0  0  0  0  0  0  0  0  0  0  0
    1.5542   -0.2167    0.0000 C   0  0  0  0  0  0  0  0  0  0  0  0
    1.5542   -1.8792    0.0000 C   0  0  0  0  0  0  0  0  0  0  0  0
    4.1292    0.3083    0.0000 O   0  0  0  0  0  0  0  0  0  0  0  0
    2.3792   -1.0542    0.0000 C   0  0  0  0  0  0  0  0  0  0  0  0
    2.7792   -4.0042    0.0000 C   0  0  0  0  0  0  0  0  0  0  0  0
    0.3250   -1.7667    0.0000 O   0  0  0  0  0  0  0  0  0  0  0  0
    0.3167   -0.3417    0.0000 C   0  0  0  0  0  0  0  0  0  0  0  0
    4.0000    2.1708    0.0000 F   0  0  0  0  0  0  0  0  0  0  0  0
    5.1417    1.8750    0.0000 F   0  0  0  0  0  0  0  0  0  0  0  0
    4.0167   -4.7292    0.0000 O   0  0  0  0  0  0  0  0  0  0  0  0
    5.5667    1.1583    0.0000 O   0  0  0  0  0  0  0  0  0  0  0  0
    5.2750    0.0083    0.0000 O   0  0  0  0  0  0  0  0  0  0  0  0
    2.9917    1.4375    0.0000 C   0  0  0  0  0  0  0  0  0  0  0  0
    3.7042    0.1958    0.0000 C   0  0  0  0  0  0  0  0  0  0  0  0
    3.1917   -3.3000    0.0000 C   0  0  0  0  0  0  0  0  0  0  0  0
    1.9542   -4.0042    0.0000 C   0  0  0  0  0  0  0  0  0  0  0  0
    1.9667   -2.5917    0.0000 C   0  0  0  0  0  0  0  0  0  0  0  0
    2.2750    0.1958    0.0000 C   0  0  0  0  0  0  0  0  0  0  0  0
    2.7792   -5.4417    0.0000 O   0  0  0  0  0  0  0  0  0  0  0  0
    2.2750    1.0250    0.0000 C   0  0  0  0  0  0  0  0  0  0  0  0
    2.7792   -2.5917    0.0000 C   0  0  0  0  0  0  0  0  0  0  0  0
    1.5500   -3.3000    0.0000 C   0  0  0  0  0  0  0  0  0  0  0  0
    2.9917   -0.2167    0.0000 C   0  0  0  0  0  0  0  0  0  0  0  0
    2.7917   -0.3417    0.0000 C   0  0  0  0  0  0  0  0  0  0  0  0
    2.7917   -1.7667    0.0000 C   0  0  0  0  0  0  0  0  0  0  0  0
   -0.5000   -0.3500    0.0000 C   0  0  0  0  0  0  0  0  0  0  0  0
    0.7292    0.3708    0.0000 C   0  0  0  0  0  0  0  0  0  0  0  0
    3.6250   -1.7667    0.0000 C   0  0  0  0  0  0  0  0  0  0  0  0
    3.6250   -0.3417    0.0000 C   0  0  0  0  0  0  0  0  0  0  0  0
    0.3167    1.0833    0.0000 C   0  0  0  0  0  0  0  0  0  0  0  0
   -0.9208    0.3583    0.0000 C   0  0  0  0  0  0  0  0  0  0  0  0
   -0.5083    1.0833    0.0000 C   0  0  0  0  0  0  0  0  0  0  0  0
    4.0375   -1.0542    0.0000 C   0  0  0  0  0  0  0  0  0  0  0  0
  2  1  1  0  0  0  0
  3  7  1  0  0  0  0
  4  3  1  0  0  0  0
  5 11  1  0  0  0  0
  6  2  1  0  0  0  0
  7 24  1  0  0  0  0
  8  3  1  0  0  0  0
  9  1  2  0  0  0  0
 10  3  1  0  0  0  0
 11 22  2  0  0  0  0
 12  4  2  0  0  0  0
 13  4  1  0  0  0  0
 14  2  1  0  0  0  0
 15  2  1  0  0  0  0
 16  5  2  0  0  0  0
 17  1  1  0  0  0  0
 18  1  1  0  0  0  0
 19  6  1  0  0  0  0
 20  6  2  0  0  0  0
 21 27  2  0  0  0  0
 22 28  1  0  0  0  0
 23  8  1  0  0  0  0
 24 29  2  0  0  0  0
 25  5  1  0  0  0  0
 26 19  2  0  0  0  0
 27 23  1  0  0  0  0
 28 23  2  0  0  0  0
 29 20  1  0  0  0  0
 30 10  1  0  0  0  0
 31 10  2  0  0  0  0
 32 13  1  0  0  0  0
 33 13  2  0  0  0  0
 34 31  1  0  0  0  0
 35 30  2  0  0  0  0
 36 33  1  0  0  0  0
 37 32  2  0  0  0  0
 38 36  2  0  0  0  0
 39 34  2  0  0  0  0
 26 24  1  0  0  0  0
 35 39  1  0  0  0  0
 21 11  1  0  0  0  0
 37 38  1  0  0  0  0
M  END
>  <Mol Weight>
550.4865

>  <Formula>
C30H25F2O6P

>  <chembl_id>
CHEMBL8660

$$$$

  Mrv0541 06201412482D          

 41 45  0  0  1  0            999 V2000
   -0.0708   -3.0625    0.0000 S   0  0  0  0  0  0  0  0  0  0  0  0
    0.6542   -2.6667    0.0000 N   0  0  0  0  0  0  0  0  0  0  0  0
    0.6792   -1.8417    0.0000 C   0  0  0  0  0  0  0  0  0  0  0  0
   -0.7833   -2.6417    0.0000 C   0  0  0  0  0  0  0  0  0  0  0  0
    1.4042   -1.4417    0.0000 C   0  0  0  0  0  0  0  0  0  0  0  0
    3.5375   -1.9125    0.0000 C   0  0  0  0  0  0  0  0  0  0  0  0
   -0.7833   -1.8167    0.0000 C   0  0  0  0  0  0  0  0  0  0  0  0
   -1.5000   -3.0542    0.0000 C   0  0  0  0  0  0  0  0  0  0  0  0
   -0.0250   -1.4125    0.0000 C   0  0  0  0  0  0  0  0  0  0  0  0
    2.8292   -1.4792    0.0000 C   0  0  1  0  0  0  0  0  0  0  0  0
    2.1042   -1.8792    0.0000 N   0  0  0  0  0  0  0  0  0  0  0  0
    4.2625   -1.5167    0.0000 C   0  0  0  0  0  0  0  0  0  0  0  0
    0.4750   -3.6875    0.0000 O   0  0  0  0  0  0  0  0  0  0  0  0
   -0.6958   -3.6000    0.0000 O   0  0  0  0  0  0  0  0  0  0  0  0
   -2.2125   -2.6417    0.0000 C   0  0  0  0  0  0  0  0  0  0  0  0
   -2.2125   -1.8250    0.0000 C   0  0  0  0  0  0  0  0  0  0  0  0
   -1.5000   -1.4042    0.0000 C   0  0  0  0  0  0  0  0  0  0  0  0
    4.9667   -1.9500    0.0000 N   0  0  0  0  0  0  0  0  0  0  0  0
    3.5167   -2.7375    0.0000 O   0  0  0  0  0  0  0  0  0  0  0  0
    1.4250   -0.6167    0.0000 O   0  0  0  0  0  0  0  0  0  0  0  0
    2.8542   -0.6542    0.0000 C   0  0  0  0  0  0  0  0  0  0  0  0
   -2.9208   -3.0542    0.0000 O   0  0  0  0  0  0  0  0  0  0  0  0
   -2.9208   -1.4125    0.0000 O   0  0  0  0  0  0  0  0  0  0  0  0
    7.1125   -1.5875    0.0000 N   0  0  0  0  0  0  0  0  0  0  0  0
    4.2792   -0.6917    0.0000 O   0  0  0  0  0  0  0  0  0  0  0  0
    1.3667   -3.0792    0.0000 C   0  0  0  0  0  0  0  0  0  0  0  0
    5.6917   -1.5542    0.0000 C   0  0  0  0  0  0  0  0  0  0  0  0
    6.3917   -1.9792    0.0000 C   0  0  0  0  0  0  0  0  0  0  0  0
    2.3292   -0.0542    0.0000 C   0  0  0  0  0  0  0  0  0  0  0  0
    7.8167   -2.0125    0.0000 C   0  0  0  0  0  0  0  0  0  0  0  0
   -3.6333   -2.6417    0.0000 C   0  0  0  0  0  0  0  0  0  0  0  0
   -3.6333   -1.8250    0.0000 C   0  0  0  0  0  0  0  0  0  0  0  0
    6.3667   -2.8042    0.0000 C   0  0  0  0  0  0  0  0  0  0  0  0
    2.5917    0.6958    0.0000 C   0  0  0  0  0  0  0  0  0  0  0  0
    1.5500   -0.2125    0.0000 C   0  0  0  0  0  0  0  0  0  0  0  0
    1.3667   -3.9042    0.0000 C   0  0  0  0  0  0  0  0  0  0  0  0
    7.8000   -2.8417    0.0000 C   0  0  0  0  0  0  0  0  0  0  0  0
    1.0250    0.3833    0.0000 C   0  0  0  0  0  0  0  0  0  0  0  0
    2.0667    1.2958    0.0000 C   0  0  0  0  0  0  0  0  0  0  0  0
    7.0750   -3.2375    0.0000 C   0  0  0  0  0  0  0  0  0  0  0  0
    1.2792    1.1458    0.0000 C   0  0  0  0  0  0  0  0  0  0  0  0
  2  1  1  0  0  0  0
  3  2  1  0  0  0  0
  4  1  1  0  0  0  0
  5  3  1  0  0  0  0
  6 10  1  0  0  0  0
  7  4  1  0  0  0  0
  8  4  2  0  0  0  0
  9  7  1  0  0  0  0
 10 11  1  0  0  0  0
 11  5  1  0  0  0  0
 12  6  1  0  0  0  0
 13  1  2  0  0  0  0
 14  1  2  0  0  0  0
 15  8  1  0  0  0  0
 16 15  2  0  0  0  0
 17  7  2  0  0  0  0
 18 12  1  0  0  0  0
 19  6  2  0  0  0  0
 20  5  2  0  0  0  0
 10 21  1  1  0  0  0
 22 15  1  0  0  0  0
 23 16  1  0  0  0  0
 24 28  1  0  0  0  0
 25 12  2  0  0  0  0
 26  2  1  0  0  0  0
 27 18  1  0  0  0  0
 28 27  1  0  0  0  0
 29 21  1  0  0  0  0
 30 24  2  0  0  0  0
 31 22  1  0  0  0  0
 32 31  1  0  0  0  0
 33 28  2  0  0  0  0
 34 29  2  0  0  0  0
 35 29  1  0  0  0  0
 36 26  1  0  0  0  0
 37 40  2  0  0  0  0
 38 35  2  0  0  0  0
 39 34  1  0  0  0  0
 40 33  1  0  0  0  0
 41 38  1  0  0  0  0
 17 16  1  0  0  0  0
  9  3  1  0  0  0  0
 32 23  1  0  0  0  0
 39 41  2  0  0  0  0
 30 37  1  0  0  0  0
M  END
>  <Mol Weight>
578.636

>  <Formula>
C29H30N4O7S

>  <chembl_id>
CHEMBL8621

$$$$

  Mrv0541 06201412482D          

 41 45  0  0  1  0            999 V2000
   -0.6716   -2.2693    0.0000 S   0  0  0  0  0  0  0  0  0  0  0  0
    0.0543   -1.8689    0.0000 N   0  0  0  0  0  0  0  0  0  0  0  0
    0.0793   -1.0429    0.0000 C   0  0  0  0  0  0  0  0  0  0  0  0
   -1.3849   -1.8521    0.0000 C   0  0  0  0  0  0  0  0  0  0  0  0
    0.8051   -0.6508    0.0000 C   0  0  0  0  0  0  0  0  0  0  0  0
    2.9409   -1.1180    0.0000 C   0  0  0  0  0  0  0  0  0  0  0  0
   -1.3849   -1.0179    0.0000 C   0  0  0  0  0  0  0  0  0  0  0  0
   -2.1024   -2.2651    0.0000 C   0  0  0  0  0  0  0  0  0  0  0  0
   -0.6257   -0.6174    0.0000 C   0  0  0  0  0  0  0  0  0  0  0  0
    2.2318   -0.6883    0.0000 C   0  0  1  0  0  0  0  0  0  0  0  0
    1.5059   -1.0804    0.0000 N   0  0  0  0  0  0  0  0  0  0  0  0
    3.6667   -0.7258    0.0000 C   0  0  0  0  0  0  0  0  0  0  0  0
   -0.1251   -2.8950    0.0000 O   0  0  0  0  0  0  0  0  0  0  0  0
   -1.2973   -2.8074    0.0000 O   0  0  0  0  0  0  0  0  0  0  0  0
   -2.8158   -1.8521    0.0000 C   0  0  0  0  0  0  0  0  0  0  0  0
   -2.8158   -1.0304    0.0000 C   0  0  0  0  0  0  0  0  0  0  0  0
   -2.1024   -0.6049    0.0000 C   0  0  0  0  0  0  0  0  0  0  0  0
    4.3717   -1.1555    0.0000 N   0  0  0  0  0  0  0  0  0  0  0  0
    2.9201   -1.9439    0.0000 O   0  0  0  0  0  0  0  0  0  0  0  0
    0.8260    0.1752    0.0000 O   0  0  0  0  0  0  0  0  0  0  0  0
    2.2568    0.1377    0.0000 C   0  0  0  0  0  0  0  0  0  0  0  0
   -3.5249   -2.2651    0.0000 O   0  0  0  0  0  0  0  0  0  0  0  0
   -3.5249   -0.6174    0.0000 O   0  0  0  0  0  0  0  0  0  0  0  0
    3.6835    0.1001    0.0000 O   0  0  0  0  0  0  0  0  0  0  0  0
    0.7676   -2.2818    0.0000 C   0  0  0  0  0  0  0  0  0  0  0  0
    5.0976   -0.7551    0.0000 C   0  0  0  0  0  0  0  0  0  0  0  0
    1.7312    0.7384    0.0000 C   0  0  0  0  0  0  0  0  0  0  0  0
    5.7984   -1.1889    0.0000 C   0  0  0  0  0  0  0  0  0  0  0  0
   -4.2382   -1.8521    0.0000 C   0  0  0  0  0  0  0  0  0  0  0  0
   -4.2382   -1.0304    0.0000 C   0  0  0  0  0  0  0  0  0  0  0  0
    0.9511    0.5840    0.0000 C   0  0  0  0  0  0  0  0  0  0  0  0
    1.9940    1.4975    0.0000 C   0  0  0  0  0  0  0  0  0  0  0  0
    5.7734   -2.0148    0.0000 C   0  0  0  0  0  0  0  0  0  0  0  0
    6.5200   -0.7926    0.0000 C   0  0  0  0  0  0  0  0  0  0  0  0
    0.7676   -3.1078    0.0000 C   0  0  0  0  0  0  0  0  0  0  0  0
    1.4684    2.0982    0.0000 C   0  0  0  0  0  0  0  0  0  0  0  0
    6.4825   -2.4445    0.0000 C   0  0  0  0  0  0  0  0  0  0  0  0
    7.2250   -1.2181    0.0000 C   0  0  0  0  0  0  0  0  0  0  0  0
    0.4255    1.1847    0.0000 C   0  0  0  0  0  0  0  0  0  0  0  0
    0.6800    1.9397    0.0000 C   0  0  0  0  0  0  0  0  0  0  0  0
    7.2083   -2.0441    0.0000 C   0  0  0  0  0  0  0  0  0  0  0  0
  2  1  1  0  0  0  0
  3  2  1  0  0  0  0
  4  1  1  0  0  0  0
  5  3  1  0  0  0  0
  6 10  1  0  0  0  0
  7  4  1  0  0  0  0
  8  4  2  0  0  0  0
  9  7  1  0  0  0  0
 10 11  1  0  0  0  0
 11  5  1  0  0  0  0
 12  6  1  0  0  0  0
 13  1  2  0  0  0  0
 14  1  2  0  0  0  0
 15  8  1  0  0  0  0
 16 15  2  0  0  0  0
 17  7  2  0  0  0  0
 18 12  1  0  0  0  0
 19  6  2  0  0  0  0
 20  5  2  0  0  0  0
 10 21  1  1  0  0  0
 22 15  1  0  0  0  0
 23 16  1  0  0  0  0
 24 12  2  0  0  0  0
 25  2  1  0  0  0  0
 26 18  1  0  0  0  0
 27 21  1  0  0  0  0
 28 26  1  0  0  0  0
 29 22  1  0  0  0  0
 30 29  1  0  0  0  0
 31 27  1  0  0  0  0
 32 27  2  0  0  0  0
 33 28  2  0  0  0  0
 34 28  1  0  0  0  0
 35 25  1  0  0  0  0
 36 32  1  0  0  0  0
 37 33  1  0  0  0  0
 38 34  2  0  0  0  0
 39 31  2  0  0  0  0
 40 36  2  0  0  0  0
 41 38  1  0  0  0  0
 17 16  1  0  0  0  0
  9  3  1  0  0  0  0
 30 23  1  0  0  0  0
 39 40  1  0  0  0  0
 37 41  2  0  0  0  0
M  END
>  <Mol Weight>
577.648

>  <Formula>
C30H31N3O7S

>  <chembl_id>
CHEMBL8459

$$$$

  Mrv0541 06201412482D          

 37 39  0  0  0  0            999 V2000
    4.6195  -11.1961    0.0000 P   0  0  0  0  0  0  0  0  0  0  0  0
    3.5220  -10.2154    0.0000 N   0  0  0  0  0  0  0  0  0  0  0  0
    4.3232  -10.4282    0.0000 C   0  0  0  0  0  0  0  0  0  0  0  0
    2.8919  -10.7454    0.0000 C   0  0  0  0  0  0  0  0  0  0  0  0
    5.1995  -10.6077    0.0000 O   0  0  0  0  0  0  0  0  0  0  0  0
    5.3330  -11.6092    0.0000 O   0  0  0  0  0  0  0  0  0  0  0  0
    1.4271  -10.9332    0.0000 N   0  0  0  0  0  0  0  0  0  0  0  0
    7.5363   -8.2541    0.0000 C   0  0  0  0  0  0  0  0  0  0  0  0
    8.1790  -13.2617    0.0000 C   0  0  0  0  0  0  0  0  0  0  0  0
    3.7223  -11.2044    0.0000 O   0  0  0  0  0  0  0  0  0  0  0  0
    2.1157  -10.4700    0.0000 C   0  0  0  0  0  0  0  0  0  0  0  0
    7.4654  -12.8485    0.0000 C   0  0  0  0  0  0  0  0  0  0  0  0
    6.9522   -8.8425    0.0000 C   0  0  0  0  0  0  0  0  0  0  0  0
    3.0338  -11.5591    0.0000 O   0  0  0  0  0  0  0  0  0  0  0  0
    8.1790  -14.0879    0.0000 O   0  0  0  0  0  0  0  0  0  0  0  0
    8.3292   -8.4669    0.0000 O   0  0  0  0  0  0  0  0  0  0  0  0
    0.8680  -12.5356    0.0000 Cl  0  0  0  0  0  0  0  0  0  0  0  0
    3.4802   -9.3891    0.0000 C   0  0  0  0  0  0  0  0  0  0  0  0
    6.7519  -13.2617    0.0000 C   0  0  0  0  0  0  0  0  0  0  0  0
    6.1468   -8.6380    0.0000 C   0  0  0  0  0  0  0  0  0  0  0  0
    7.4654  -12.0223    0.0000 C   0  0  0  0  0  0  0  0  0  0  0  0
    7.1733   -9.6437    0.0000 C   0  0  0  0  0  0  0  0  0  0  0  0
    5.7879  -10.0193    0.0000 C   0  0  0  0  0  0  0  0  0  0  0  0
    6.0466  -12.0223    0.0000 C   0  0  0  0  0  0  0  0  0  0  0  0
    7.3152   -7.4612    0.0000 O   0  0  0  0  0  0  0  0  0  0  0  0
    8.8926  -12.8485    0.0000 O   0  0  0  0  0  0  0  0  0  0  0  0
    4.7697   -9.7313    0.0000 C   0  0  0  0  0  0  0  0  0  0  0  0
    6.7519  -11.6092    0.0000 C   0  0  0  0  0  0  0  0  0  0  0  0
    6.0383  -12.8485    0.0000 C   0  0  0  0  0  0  0  0  0  0  0  0
    6.5891  -10.2321    0.0000 C   0  0  0  0  0  0  0  0  0  0  0  0
    5.5626   -9.2264    0.0000 C   0  0  0  0  0  0  0  0  0  0  0  0
    0.7762  -10.4324    0.0000 C   0  0  0  0  0  0  0  0  0  0  0  0
    4.2481   -9.0929    0.0000 C   0  0  0  0  0  0  0  0  0  0  0  0
    1.8820   -9.6813    0.0000 C   0  0  0  0  0  0  0  0  0  0  0  0
    9.6062  -13.2617    0.0000 C   0  0  0  0  0  0  0  0  0  0  0  0
    7.8994   -6.8771    0.0000 C   0  0  0  0  0  0  0  0  0  0  0  0
    1.0558   -9.6562    0.0000 C   0  0  0  0  0  0  0  0  0  0  0  0
  2  3  1  0  0  0  0
  3  1  1  0  0  0  0
  4  2  1  0  0  0  0
  5  1  1  0  0  0  0
  6  1  1  0  0  0  0
  7 11  1  0  0  0  0
  8 13  1  0  0  0  0
  9 12  1  0  0  0  0
 10  1  2  0  0  0  0
 11  4  1  0  0  0  0
 12 19  2  0  0  0  0
 13 22  2  0  0  0  0
 14  4  2  0  0  0  0
 15  9  2  0  0  0  0
 16  8  2  0  0  0  0
 18  2  1  0  0  0  0
 19 29  1  0  0  0  0
 20 31  2  0  0  0  0
 21 28  2  0  0  0  0
 22 30  1  0  0  0  0
 23  5  1  0  0  0  0
 24  6  1  0  0  0  0
 25  8  1  0  0  0  0
 26  9  1  0  0  0  0
 27  3  1  0  0  0  0
 28 24  1  0  0  0  0
 29 24  2  0  0  0  0
 30 23  2  0  0  0  0
 31 23  1  0  0  0  0
 32  7  1  0  0  0  0
 33 27  1  0  0  0  0
 34 11  1  0  0  0  0
 35 26  1  0  0  0  0
 36 25  1  0  0  0  0
 37 34  1  0  0  0  0
 33 18  1  0  0  0  0
 12 21  1  0  0  0  0
 20 13  1  0  0  0  0
 32 37  1  0  0  0  0
M  END
>  <Mol Weight>
552.941

>  <Formula>
C25H30ClN2O8P

>  <chembl_id>
CHEMBL9408

$$$$

  Mrv0541 06201412482D          

 39 38  0  0  0  0            999 V2000
    8.3545   -8.4867    0.0000 C   0  0  0  0  0  0  0  0  0  0  0  0
    9.7333   -9.3492    0.0000 C   0  0  0  0  0  0  0  0  0  0  0  0
    8.3482   -9.3303    0.0000 N   0  0  0  0  0  0  0  0  0  0  0  0
    9.0345   -9.7522    0.0000 C   0  0  0  0  0  0  0  0  0  0  0  0
    9.0345   -8.0649    0.0000 O   0  0  0  0  0  0  0  0  0  0  0  0
   10.5077   -9.6703    0.0000 F   0  0  0  0  0  0  0  0  0  0  0  0
    9.8780   -8.4804    0.0000 F   0  0  0  0  0  0  0  0  0  0  0  0
   10.3691   -8.9715    0.0000 F   0  0  0  0  0  0  0  0  0  0  0  0
    8.0334   -1.8698    0.0000 C   0  0  0  0  0  0  0  0  0  0  0  0
    7.7124   -1.0829    0.0000 C   0  0  0  0  0  0  0  0  0  0  0  0
    7.6557   -8.0649    0.0000 O   0  0  0  0  0  0  0  0  0  0  0  0
    7.6368   -9.7458    0.0000 C   0  0  0  0  0  0  0  0  0  0  0  0
    7.5235   -2.5184    0.0000 C   0  0  0  0  0  0  0  0  0  0  0  0
    6.9127   -0.9507    0.0000 C   0  0  0  0  0  0  0  0  0  0  0  0
    7.6871   -7.2527    0.0000 C   0  0  0  0  0  0  0  0  0  0  0  0
    7.6368  -10.5832    0.0000 C   0  0  0  0  0  0  0  0  0  0  0  0
    7.8446   -3.3116    0.0000 C   0  0  0  0  0  0  0  0  0  0  0  0
    6.5980   -0.1574    0.0000 C   0  0  0  0  0  0  0  0  0  0  0  0
    6.9946   -6.8247    0.0000 C   0  0  0  0  0  0  0  0  0  0  0  0
    4.1049  -16.0164    0.0000 C   0  0  0  0  0  0  0  0  0  0  0  0
    3.5572    1.8257    0.0000 C   0  0  0  0  0  0  0  0  0  0  0  0
    4.3630    1.6935    0.0000 C   0  0  0  0  0  0  0  0  0  0  0  0
    4.8163  -15.6009    0.0000 C   0  0  0  0  0  0  0  0  0  0  0  0
    6.2328  -12.2453    0.0000 C   0  0  0  0  0  0  0  0  0  0  0  0
    6.2203  -13.0952    0.0000 C   0  0  0  0  0  0  0  0  0  0  0  0
    5.5214  -13.5107    0.0000 C   0  0  0  0  0  0  0  0  0  0  0  0
    5.5214  -14.3543    0.0000 C   0  0  0  0  0  0  0  0  0  0  0  0
    4.8226  -14.7573    0.0000 C   0  0  0  0  0  0  0  0  0  0  0  0
    7.6682   -4.7471    0.0000 C   0  0  0  0  0  0  0  0  0  0  0  0
    7.3535   -3.9538    0.0000 C   0  0  0  0  0  0  0  0  0  0  0  0
    7.4857   -6.1761    0.0000 C   0  0  0  0  0  0  0  0  0  0  0  0
    7.1646   -5.3892    0.0000 C   0  0  0  0  0  0  0  0  0  0  0  0
    5.7984   -0.0252    0.0000 C   0  0  0  0  0  0  0  0  0  0  0  0
    5.4837    0.7555    0.0000 C   0  0  0  0  0  0  0  0  0  0  0  0
    4.6840    0.9002    0.0000 C   0  0  0  0  0  0  0  0  0  0  0  0
    6.9380  -10.9987    0.0000 C   0  0  0  0  0  0  0  0  0  0  0  0
    6.9316  -11.8298    0.0000 C   0  0  0  0  0  0  0  0  0  0  0  0
    4.1049  -16.8538    0.0000 C   0  0  0  0  0  0  0  0  0  0  0  0
    3.2486    2.6190    0.0000 C   0  0  0  0  0  0  0  0  0  0  0  0
  2  4  1  0  0  0  0
  3  1  1  0  0  0  0
  4  3  1  0  0  0  0
  5  1  2  0  0  0  0
  6  2  1  0  0  0  0
  7  2  1  0  0  0  0
  8  2  1  0  0  0  0
  9 13  1  0  0  0  0
 10  9  2  0  0  0  0
 11  1  1  0  0  0  0
 12  3  1  0  0  0  0
 13 17  1  0  0  0  0
 14 10  1  0  0  0  0
 15 11  1  0  0  0  0
 16 12  1  0  0  0  0
 17 30  1  0  0  0  0
 18 14  1  0  0  0  0
 19 15  1  0  0  0  0
 20 23  1  0  0  0  0
 21 22  1  0  0  0  0
 22 35  1  0  0  0  0
 23 28  1  0  0  0  0
 24 37  1  0  0  0  0
 25 24  1  0  0  0  0
 26 25  1  0  0  0  0
 27 26  1  0  0  0  0
 28 27  1  0  0  0  0
 29 32  1  0  0  0  0
 30 29  1  0  0  0  0
 31 19  1  0  0  0  0
 32 31  1  0  0  0  0
 33 18  1  0  0  0  0
 34 33  1  0  0  0  0
 35 34  1  0  0  0  0
 36 16  1  0  0  0  0
 37 36  1  0  0  0  0
 38 20  1  0  0  0  0
 39 21  1  0  0  0  0
M  END
>  <Mol Weight>
561.8461

>  <Formula>
C33H62F3NO2

>  <chembl_id>
CHEMBL8814

$$$$

  Mrv0541 06201412482D          

 42 44  0  0  1  0            999 V2000
    3.6423    0.2045    0.0000 C   0  0  0  0  0  0  0  0  0  0  0  0
    2.9231   -0.2112    0.0000 C   0  0  0  0  0  0  0  0  0  0  0  0
    2.2105    0.2045    0.0000 C   0  0  0  0  0  0  0  0  0  0  0  0
    3.6423    1.0293    0.0000 C   0  0  0  0  0  0  0  0  0  0  0  0
    2.9231    1.4450    0.0000 C   0  0  0  0  0  0  0  0  0  0  0  0
    2.2170    1.0293    0.0000 C   0  0  0  0  0  0  0  0  0  0  0  0
    0.8149   -6.1101    0.0000 C   0  0  0  0  0  0  0  0  0  0  0  0
    1.0723   -5.3248    0.0000 C   0  0  0  0  0  0  0  0  0  0  0  0
    4.3549   -0.2112    0.0000 C   0  0  2  0  0  0  0  0  0  0  0  0
    5.0609   -1.4484    0.0000 C   0  0  0  0  0  0  0  0  0  0  0  0
    1.3692   -6.7138    0.0000 C   0  0  0  0  0  0  0  0  0  0  0  0
    0.0132   -6.2849    0.0000 C   0  0  0  0  0  0  0  0  0  0  0  0
    4.3549   -1.0327    0.0000 O   0  0  0  0  0  0  0  0  0  0  0  0
    5.0609   -2.2698    0.0000 C   0  0  0  0  0  0  0  0  0  0  0  0
    1.4978   -0.2112    0.0000 C   0  0  0  0  0  0  0  0  0  0  0  0
    1.8805   -5.1500    0.0000 C   0  0  0  0  0  0  0  0  0  0  0  0
    1.4978    1.4417    0.0000 C   0  0  0  0  0  0  0  0  0  0  0  0
    2.9231   -1.0327    0.0000 O   0  0  0  0  0  0  0  0  0  0  0  0
    5.7801   -0.2112    0.0000 C   0  0  0  0  0  0  0  0  0  0  0  0
    3.1903   -3.4081    0.0000 C   0  0  0  0  0  0  0  0  0  0  0  0
    2.9231    2.2665    0.0000 O   0  0  0  0  0  0  0  0  0  0  0  0
    4.2559   -2.4480    0.0000 C   0  0  0  0  0  0  0  0  0  0  0  0
    2.1313   -4.3648    0.0000 C   0  0  0  0  0  0  0  0  0  0  0  0
    5.0708    0.1946    0.0000 C   0  0  0  0  0  0  0  0  0  0  0  0
    4.0019   -3.2365    0.0000 C   0  0  0  0  0  0  0  0  0  0  0  0
    2.9429   -4.1900    0.0000 C   0  0  0  0  0  0  0  0  0  0  0  0
    5.7801   -1.0392    0.0000 O   0  0  0  0  0  0  0  0  0  0  0  0
    6.4961    0.1946    0.0000 C   0  0  0  0  0  0  0  0  0  0  0  0
    0.7852    0.2045    0.0000 C   0  0  0  0  0  0  0  0  0  0  0  0
    0.7852    1.0260    0.0000 C   0  0  0  0  0  0  0  0  0  0  0  0
    1.5044   -1.0327    0.0000 O   0  0  0  0  0  0  0  0  0  0  0  0
    1.4978    2.2632    0.0000 O   0  0  0  0  0  0  0  0  0  0  0  0
    1.1217   -7.5023    0.0000 C   0  0  0  0  0  0  0  0  0  0  0  0
   -0.2441   -7.0668    0.0000 C   0  0  0  0  0  0  0  0  0  0  0  0
    2.1774   -6.5422    0.0000 C   0  0  0  0  0  0  0  0  0  0  0  0
   -0.7819   -6.0309    0.0000 C   0  0  0  0  0  0  0  0  0  0  0  0
   -0.1649   -5.4766    0.0000 C   0  0  0  0  0  0  0  0  0  0  0  0
    0.3101   -7.6804    0.0000 C   0  0  0  0  0  0  0  0  0  0  0  0
    3.7050   -1.8344    0.0000 C   0  0  0  0  0  0  0  0  0  0  0  0
    1.5770   -3.7545    0.0000 C   0  0  0  0  0  0  0  0  0  0  0  0
    6.4961    1.0161    0.0000 C   0  0  0  0  0  0  0  0  0  0  0  0
    7.2087   -0.2211    0.0000 C   0  0  0  0  0  0  0  0  0  0  0  0
  2  1  1  0  0  0  0
  3  2  1  0  0  0  0
  4  1  2  0  0  0  0
  5  4  1  0  0  0  0
  6  5  1  0  0  0  0
  7  8  1  0  0  0  0
  8 16  2  0  0  0  0
  9  1  1  0  0  0  0
 10 13  1  0  0  0  0
 11  7  2  0  0  0  0
 12  7  1  0  0  0  0
  9 13  1  1  0  0  0
 14 10  1  0  0  0  0
 15  3  2  0  0  0  0
 16 23  1  0  0  0  0
 17  6  2  0  0  0  0
 18  2  2  0  0  0  0
 19 24  1  0  0  0  0
 20 25  2  0  0  0  0
 21  5  2  0  0  0  0
 22 14  2  0  0  0  0
 23 26  2  0  0  0  0
 24  9  1  0  0  0  0
 25 22  1  0  0  0  0
 26 20  1  0  0  0  0
 27 10  2  0  0  0  0
 28 19  2  0  0  0  0
 29 15  1  0  0  0  0
 30 17  1  0  0  0  0
 31 15  1  0  0  0  0
 32 17  1  0  0  0  0
 33 11  1  0  0  0  0
 34 12  1  0  0  0  0
 35 11  1  0  0  0  0
 36 12  1  0  0  0  0
 37 12  1  0  0  0  0
 38 34  1  0  0  0  0
 39 22  1  0  0  0  0
 40 23  1  0  0  0  0
 41 28  1  0  0  0  0
 42 28  1  0  0  0  0
  3  6  1  0  0  0  0
 29 30  2  0  0  0  0
 38 33  1  0  0  0  0
M  END
>  <Mol Weight>
570.7151

>  <Formula>
C36H42O6

>  <chembl_id>
CHEMBL8937

$$$$

  Mrv0541 06201412482D          

 42 43  0  0  1  0            999 V2000
    6.6738   -6.1280    0.0000 C   0  0  2  0  0  0  0  0  0  0  0  0
    7.5124   -5.4890    0.0000 C   0  0  1  0  0  0  0  0  0  0  0  0
    4.7923   -5.5156    0.0000 C   0  0  2  0  0  0  0  0  0  0  0  0
    5.5156   -5.9416    0.0000 O   0  0  0  0  0  0  0  0  0  0  0  0
    8.4797   -5.9150    0.0000 C   0  0  2  0  0  0  0  0  0  0  0  0
    4.0779   -5.9283    0.0000 C   0  0  2  0  0  0  0  0  0  0  0  0
    2.6669   -6.7270    0.0000 C   0  0  0  0  0  0  0  0  0  0  0  0
    6.7891   -7.1796    0.0000 O   0  0  0  0  0  0  0  0  0  0  0  0
    1.9702   -7.1264    0.0000 O   0  0  0  0  0  0  0  0  0  0  0  0
    3.3812   -7.1264    0.0000 C   0  0  0  0  0  0  0  0  0  0  0  0
    4.0779   -6.7270    0.0000 C   0  0  0  0  0  0  0  0  0  0  0  0
    4.7923   -4.7169    0.0000 C   0  0  2  0  0  0  0  0  0  0  0  0
    1.9702   -5.5023    0.0000 C   0  0  0  0  0  0  0  0  0  0  0  0
    2.6669   -3.4656    0.0000 C   0  0  0  0  0  0  0  0  0  0  0  0
    3.3812   -3.0795    0.0000 C   0  0  0  0  0  0  0  0  0  0  0  0
    8.6040   -6.9666    0.0000 C   0  0  0  0  0  0  0  0  0  0  0  0
    4.0779   -4.2776    0.0000 C   0  0  0  0  0  0  0  0  0  0  0  0
    1.9702   -4.6903    0.0000 C   0  0  0  0  0  0  0  0  0  0  0  0
    1.2558   -6.7270    0.0000 C   0  0  1  0  0  0  0  0  0  0  0  0
    2.6669   -4.2776    0.0000 C   0  0  0  0  0  0  0  0  0  0  0  0
    1.2558   -5.8884    0.0000 C   0  0  1  0  0  0  0  0  0  0  0  0
    4.0779   -3.4656    0.0000 C   0  0  1  0  0  0  0  0  0  0  0  0
    9.4959   -5.6487    0.0000 N   0  0  0  0  0  0  0  0  0  0  0  0
    7.7520   -7.5923    0.0000 C   0  0  1  0  0  0  0  0  0  0  0  0
    2.6669   -5.9017    0.0000 O   0  0  0  0  0  0  0  0  0  0  0  0
    5.5156   -4.2776    0.0000 C   0  0  0  0  0  0  0  0  0  0  0  0
    3.3812   -2.2409    0.0000 O   0  0  0  0  0  0  0  0  0  0  0  0
    7.5079   -4.4374    0.0000 O   0  0  0  0  0  0  0  0  0  0  0  0
    6.2034   -3.0795    0.0000 N   0  0  0  0  0  0  0  0  0  0  0  0
    4.8101   -7.1530    0.0000 O   0  0  0  0  0  0  0  0  0  0  0  0
    5.5156   -3.4789    0.0000 C   0  0  0  0  0  0  0  0  0  0  0  0
    3.3812   -5.5156    0.0000 C   0  0  0  0  0  0  0  0  0  0  0  0
    0.5192   -7.1264    0.0000 C   0  0  0  0  0  0  0  0  0  0  0  0
    1.2558   -4.2776    0.0000 C   0  0  0  0  0  0  0  0  0  0  0  0
   10.4099   -6.1679    0.0000 C   0  0  0  0  0  0  0  0  0  0  0  0
    9.7710   -4.6237    0.0000 C   0  0  0  0  0  0  0  0  0  0  0  0
    0.5192   -5.4890    0.0000 C   0  0  0  0  0  0  0  0  0  0  0  0
    4.7923   -3.0396    0.0000 C   0  0  0  0  0  0  0  0  0  0  0  0
    7.7476   -8.6439    0.0000 C   0  0  0  0  0  0  0  0  0  0  0  0
    6.9666   -3.2792    0.0000 C   0  0  0  0  0  0  0  0  0  0  0  0
    6.4030   -2.3074    0.0000 C   0  0  0  0  0  0  0  0  0  0  0  0
    0.4925   -7.9517    0.0000 C   0  0  0  0  0  0  0  0  0  0  0  0
  2  1  1  0  0  0  0
  3  4  1  6  0  0  0
  1  4  1  1  0  0  0
  5  2  1  0  0  0  0
  6  3  1  0  0  0  0
  7 10  1  0  0  0  0
  8  1  1  0  0  0  0
  9  7  1  0  0  0  0
 10 11  1  0  0  0  0
 11  6  1  0  0  0  0
 12  3  1  0  0  0  0
 13 18  2  0  0  0  0
 14 15  1  0  0  0  0
 15 22  1  0  0  0  0
 16 24  1  0  0  0  0
 17 12  1  0  0  0  0
 18 20  1  0  0  0  0
 19  9  1  0  0  0  0
 20 14  2  0  0  0  0
 21 19  1  0  0  0  0
 22 17  1  0  0  0  0
  5 23  1  1  0  0  0
 24  8  1  0  0  0  0
 25  7  2  0  0  0  0
 12 26  1  6  0  0  0
 27 15  2  0  0  0  0
  2 28  1  6  0  0  0
 29 31  1  0  0  0  0
 30 11  1  0  0  0  0
 31 26  1  0  0  0  0
  6 32  1  6  0  0  0
 19 33  1  6  0  0  0
 34 18  1  0  0  0  0
 35 23  1  0  0  0  0
 36 23  1  0  0  0  0
 21 37  1  1  0  0  0
 22 38  1  6  0  0  0
 24 39  1  1  0  0  0
 40 29  1  0  0  0  0
 41 29  1  0  0  0  0
 42 33  1  0  0  0  0
  5 16  1  0  0  0  0
 21 13  1  0  0  0  0
M  END
>  <Mol Weight>
594.8228

>  <Formula>
C33H58N2O7

>  <chembl_id>
CHEMBL9117

$$$$

  Mrv0541 06201412482D          

 40 41  0  0  1  0            999 V2000
    6.6875   -9.7000    0.0000 N   0  0  0  0  0  0  0  0  0  0  0  0
    5.9667  -10.1125    0.0000 C   0  0  0  0  0  0  0  0  0  0  0  0
    7.4000  -10.1125    0.0000 C   0  0  2  0  0  0  0  0  0  0  0  0
    8.1167   -9.7000    0.0000 C   0  0  0  0  0  0  0  0  0  0  0  0
    3.8292   -8.8750    0.0000 C   0  0  0  0  0  0  0  0  0  0  0  0
    5.9667   -2.6875    0.0000 C   0  0  0  0  0  0  0  0  0  0  0  0
    5.2542   -9.7000    0.0000 C   0  0  1  0  0  0  0  0  0  0  0  0
    4.5417  -10.1125    0.0000 C   0  0  0  0  0  0  0  0  0  0  0  0
    7.4000  -10.9375    0.0000 C   0  0  0  0  0  0  0  0  0  0  0  0
    5.9667   -3.5125    0.0000 C   0  0  0  0  0  0  0  0  0  0  0  0
    3.8292   -9.7000    0.0000 C   0  0  2  0  0  0  0  0  0  0  0  0
    5.9667   -5.1625    0.0000 C   0  0  0  0  0  0  0  0  0  0  0  0
    5.9750   -5.9875    0.0000 C   0  0  0  0  0  0  0  0  0  0  0  0
    5.9667  -10.9375    0.0000 O   0  0  0  0  0  0  0  0  0  0  0  0
    8.1167   -8.8750    0.0000 O   0  0  0  0  0  0  0  0  0  0  0  0
    3.1167   -8.4542    0.0000 O   0  0  0  0  0  0  0  0  0  0  0  0
    5.2542   -2.2792    0.0000 O   0  0  0  0  0  0  0  0  0  0  0  0
    5.2542   -3.9292    0.0000 C   0  0  0  0  0  0  0  0  0  0  0  0
    6.6875   -3.9250    0.0000 C   0  0  0  0  0  0  0  0  0  0  0  0
    5.2542   -4.7542    0.0000 C   0  0  0  0  0  0  0  0  0  0  0  0
    6.6875   -4.7500    0.0000 C   0  0  0  0  0  0  0  0  0  0  0  0
    5.2542   -8.8750    0.0000 C   0  0  0  0  0  0  0  0  0  0  0  0
    8.8292  -10.1125    0.0000 N   0  0  0  0  0  0  0  0  0  0  0  0
    5.2542   -6.4042    0.0000 C   0  0  0  0  0  0  0  0  0  0  0  0
    6.6875   -6.4000    0.0000 C   0  0  0  0  0  0  0  0  0  0  0  0
    4.5417   -8.4542    0.0000 O   0  0  0  0  0  0  0  0  0  0  0  0
    6.6792   -2.2750    0.0000 O   0  0  0  0  0  0  0  0  0  0  0  0
    5.9667   -7.6375    0.0000 C   0  0  0  0  0  0  0  0  0  0  0  0
    5.9667   -8.4625    0.0000 C   0  0  0  0  0  0  0  0  0  0  0  0
    5.2625   -7.2250    0.0000 C   0  0  0  0  0  0  0  0  0  0  0  0
    6.6875   -7.2250    0.0000 C   0  0  0  0  0  0  0  0  0  0  0  0
    6.6875  -11.3500    0.0000 C   0  0  0  0  0  0  0  0  0  0  0  0
    8.1167  -11.3500    0.0000 C   0  0  0  0  0  0  0  0  0  0  0  0
    7.3917  -11.7542    0.0000 C   0  0  0  0  0  0  0  0  0  0  0  0
    3.1125  -10.1125    0.0000 C   0  0  0  0  0  0  0  0  0  0  0  0
    9.5417   -9.7000    0.0000 C   0  0  0  0  0  0  0  0  0  0  0  0
    6.6792   -1.4500    0.0000 C   0  0  0  0  0  0  0  0  0  0  0  0
    2.4000   -9.7000    0.0000 C   0  0  0  0  0  0  0  0  0  0  0  0
    1.6875  -10.1125    0.0000 C   0  0  0  0  0  0  0  0  0  0  0  0
    0.9667   -9.7000    0.0000 C   0  0  0  0  0  0  0  0  0  0  0  0
  2  1  1  0  0  0  0
  3  1  1  0  0  0  0
  4  3  1  0  0  0  0
 11  5  1  6  0  0  0
  6 10  1  0  0  0  0
  7  2  1  0  0  0  0
  8  7  1  0  0  0  0
  3  9  1  6  0  0  0
 10 19  2  0  0  0  0
 11  8  1  0  0  0  0
 12 13  1  0  0  0  0
 13 25  2  0  0  0  0
 14  2  2  0  0  0  0
 15  4  2  0  0  0  0
 16  5  2  0  0  0  0
 17  6  2  0  0  0  0
 18 20  2  0  0  0  0
 19 21  1  0  0  0  0
 20 12  1  0  0  0  0
 21 12  2  0  0  0  0
  7 22  1  1  0  0  0
 23  4  1  0  0  0  0
 24 30  2  0  0  0  0
 25 31  1  0  0  0  0
 26  5  1  0  0  0  0
 27  6  1  0  0  0  0
 28 29  1  0  0  0  0
 29 22  1  0  0  0  0
 30 28  1  0  0  0  0
 31 28  2  0  0  0  0
 32  9  1  0  0  0  0
 33  9  1  0  0  0  0
 34  9  1  0  0  0  0
 35 11  1  0  0  0  0
 36 23  1  0  0  0  0
 37 27  1  0  0  0  0
 38 35  1  0  0  0  0
 39 38  1  0  0  0  0
 40 39  1  0  0  0  0
 13 24  1  0  0  0  0
 10 18  1  0  0  0  0
M  END
>  <Mol Weight>
552.7016

>  <Formula>
C32H44N2O6

>  <chembl_id>
CHEMBL8888

$$$$

  Mrv0541 06201412482D          

 36 37  0  0  0  0            999 V2000
    0.7542   -1.7167    0.0000 C   0  0  0  0  0  0  0  0  0  0  0  0
    4.0500    0.0500    0.0000 P   0  0  0  0  0  0  0  0  0  0  0  0
    2.1125   -6.4042    0.0000 P   0  0  0  0  0  0  0  0  0  0  0  0
    3.6250    0.7708    0.0000 C   0  0  0  0  0  0  0  0  0  0  0  0
    1.7042   -5.6917    0.0000 C   0  0  0  0  0  0  0  0  0  0  0  0
    1.4667   -2.1375    0.0000 C   0  0  0  0  0  0  0  0  0  0  0  0
    0.0375   -2.1250    0.0000 C   0  0  0  0  0  0  0  0  0  0  0  0
    1.4625   -4.9042    0.0000 C   0  0  0  0  0  0  0  0  0  0  0  0
    2.9042    0.3458    0.0000 C   0  0  0  0  0  0  0  0  0  0  0  0
    0.7542   -2.5417    0.0000 C   0  0  0  0  0  0  0  0  0  0  0  0
    0.7625   -0.8917    0.0000 C   0  0  0  0  0  0  0  0  0  0  0  0
    3.3292   -0.3750    0.0000 O   0  0  0  0  0  0  0  0  0  0  0  0
    1.3917   -6.8125    0.0000 O   0  0  0  0  0  0  0  0  0  0  0  0
    1.4625   -2.9625    0.0000 O   0  0  0  0  0  0  0  0  0  0  0  0
    0.0292   -2.9500    0.0000 O   0  0  0  0  0  0  0  0  0  0  0  0
    0.9875   -6.1000    0.0000 F   0  0  0  0  0  0  0  0  0  0  0  0
    2.4167   -5.2750    0.0000 F   0  0  0  0  0  0  0  0  0  0  0  0
    4.3417    1.1958    0.0000 F   0  0  0  0  0  0  0  0  0  0  0  0
    3.2000    1.4958    0.0000 F   0  0  0  0  0  0  0  0  0  0  0  0
    4.7667    0.4750    0.0000 O   0  0  0  0  0  0  0  0  0  0  0  0
    4.4750   -0.6667    0.0000 O   0  0  0  0  0  0  0  0  0  0  0  0
    2.8250   -5.9875    0.0000 O   0  0  0  0  0  0  0  0  0  0  0  0
    2.5167   -7.1167    0.0000 O   0  0  0  0  0  0  0  0  0  0  0  0
    2.1917    0.7583    0.0000 C   0  0  0  0  0  0  0  0  0  0  0  0
    2.0250   -4.3000    0.0000 C   0  0  0  0  0  0  0  0  0  0  0  0
    2.9042   -0.4792    0.0000 C   0  0  0  0  0  0  0  0  0  0  0  0
    0.6625   -4.7167    0.0000 C   0  0  0  0  0  0  0  0  0  0  0  0
    1.4750   -0.4792    0.0000 C   0  0  0  0  0  0  0  0  0  0  0  0
    0.9917   -3.3292    0.0000 C   0  0  0  0  0  0  0  0  0  0  0  0
    2.1792   -1.7292    0.0000 O   0  0  0  0  0  0  0  0  0  0  0  0
   -0.6708   -1.7042    0.0000 O   0  0  0  0  0  0  0  0  0  0  0  0
    1.4750    0.3458    0.0000 C   0  0  0  0  0  0  0  0  0  0  0  0
    1.7875   -3.5167    0.0000 C   0  0  0  0  0  0  0  0  0  0  0  0
    2.1917   -0.8917    0.0000 C   0  0  0  0  0  0  0  0  0  0  0  0
    0.4250   -3.9292    0.0000 C   0  0  0  0  0  0  0  0  0  0  0  0
   -0.6708   -0.8792    0.0000 C   0  0  0  0  0  0  0  0  0  0  0  0
  2  4  1  0  0  0  0
  3  5  1  0  0  0  0
  4  9  1  0  0  0  0
  5  8  1  0  0  0  0
  6  1  1  0  0  0  0
  7  1  1  0  0  0  0
  8 27  2  0  0  0  0
  9 26  2  0  0  0  0
 10  1  1  0  0  0  0
 11  1  1  0  0  0  0
 12  2  2  0  0  0  0
 13  3  2  0  0  0  0
 14  6  2  0  0  0  0
 15  7  2  0  0  0  0
 16  5  1  0  0  0  0
 17  5  1  0  0  0  0
 18  4  1  0  0  0  0
 19  4  1  0  0  0  0
 20  2  1  0  0  0  0
 21  2  1  0  0  0  0
 22  3  1  0  0  0  0
 23  3  1  0  0  0  0
 24 32  2  0  0  0  0
 25 33  2  0  0  0  0
 26 34  1  0  0  0  0
 27 35  1  0  0  0  0
 28 11  1  0  0  0  0
 29 10  1  0  0  0  0
 30  6  1  0  0  0  0
 31  7  1  0  0  0  0
 32 28  1  0  0  0  0
 33 29  1  0  0  0  0
 34 28  2  0  0  0  0
 35 29  2  0  0  0  0
 36 31  1  0  0  0  0
  9 24  1  0  0  0  0
  8 25  1  0  0  0  0
M  END
>  <Mol Weight>
558.3079

>  <Formula>
C20H20F4O10P2

>  <chembl_id>
CHEMBL9070

$$$$

  Mrv0541 06201412482D          

 43 46  0  0  0  0            999 V2000
    1.8105   -3.6953    0.0000 C   0  0  0  0  0  0  0  0  0  0  0  0
    1.8105   -2.8761    0.0000 C   0  0  0  0  0  0  0  0  0  0  0  0
    1.0886   -4.1136    0.0000 N   0  0  0  0  0  0  0  0  0  0  0  0
    0.3839   -2.8761    0.0000 N   0  0  0  0  0  0  0  0  0  0  0  0
    0.3839   -3.7011    0.0000 C   0  0  0  0  0  0  0  0  0  0  0  0
    2.5953   -3.9417    0.0000 N   0  0  0  0  0  0  0  0  0  0  0  0
    1.0886   -2.4636    0.0000 C   0  0  0  0  0  0  0  0  0  0  0  0
    2.5839   -2.6183    0.0000 N   0  0  0  0  0  0  0  0  0  0  0  0
    3.0766   -3.2828    0.0000 C   0  0  0  0  0  0  0  0  0  0  0  0
   15.0105   -5.4141    0.0000 N   0  3  0  0  0  0  0  0  0  0  0  0
   10.8969   -5.4141    0.0000 C   0  0  0  0  0  0  0  0  0  0  0  0
   14.1855   -5.4141    0.0000 C   0  0  0  0  0  0  0  0  0  0  0  0
    3.9016   -3.2714    0.0000 C   0  0  0  0  0  0  0  0  0  0  0  0
   -0.3266   -4.1078    0.0000 O   0  0  0  0  0  0  0  0  0  0  0  0
   15.4344   -6.1245    0.0000 O   0  5  0  0  0  0  0  0  0  0  0  0
    1.0886   -1.6386    0.0000 O   0  0  0  0  0  0  0  0  0  0  0  0
   11.7219   -5.4141    0.0000 N   0  0  0  0  0  0  0  0  0  0  0  0
    7.6027   -3.9761    0.0000 C   0  0  0  0  0  0  0  0  0  0  0  0
   15.4230   -4.6922    0.0000 O   0  0  0  0  0  0  0  0  0  0  0  0
   10.8855   -4.5891    0.0000 S   0  0  0  0  0  0  0  0  0  0  0  0
    1.0886   -4.9386    0.0000 C   0  0  0  0  0  0  0  0  0  0  0  0
    8.0152   -3.2656    0.0000 O   0  0  0  0  0  0  0  0  0  0  0  0
   -0.3266   -2.4636    0.0000 C   0  0  0  0  0  0  0  0  0  0  0  0
   10.0719   -5.4141    0.0000 N   0  0  0  0  0  0  0  0  0  0  0  0
   13.7730   -4.6980    0.0000 C   0  0  0  0  0  0  0  0  0  0  0  0
   13.7730   -6.1245    0.0000 C   0  0  0  0  0  0  0  0  0  0  0  0
    4.3027   -3.9933    0.0000 C   0  0  0  0  0  0  0  0  0  0  0  0
    4.3027   -2.5667    0.0000 C   0  0  0  0  0  0  0  0  0  0  0  0
   12.5469   -5.4141    0.0000 C   0  0  0  0  0  0  0  0  0  0  0  0
    8.0152   -4.6922    0.0000 N   0  0  0  0  0  0  0  0  0  0  0  0
    6.3652   -3.2714    0.0000 O   0  0  0  0  0  0  0  0  0  0  0  0
    6.7777   -3.9875    0.0000 C   0  0  0  0  0  0  0  0  0  0  0  0
    5.5402   -3.2714    0.0000 C   0  0  0  0  0  0  0  0  0  0  0  0
   12.9480   -4.6980    0.0000 C   0  0  0  0  0  0  0  0  0  0  0  0
   12.9480   -6.1245    0.0000 C   0  0  0  0  0  0  0  0  0  0  0  0
    5.1277   -2.5609    0.0000 C   0  0  0  0  0  0  0  0  0  0  0  0
    5.1277   -3.9933    0.0000 C   0  0  0  0  0  0  0  0  0  0  0  0
    9.2469   -5.4027    0.0000 C   0  0  0  0  0  0  0  0  0  0  0  0
    8.8402   -4.6922    0.0000 C   0  0  0  0  0  0  0  0  0  0  0  0
   -1.0427   -2.8761    0.0000 C   0  0  0  0  0  0  0  0  0  0  0  0
    0.3839   -5.3511    0.0000 C   0  0  0  0  0  0  0  0  0  0  0  0
   -1.7645   -2.4636    0.0000 C   0  0  0  0  0  0  0  0  0  0  0  0
    0.3839   -6.1761    0.0000 C   0  0  0  0  0  0  0  0  0  0  0  0
  2  1  2  0  0  0  0
  3  1  1  0  0  0  0
  4  5  1  0  0  0  0
  5  3  1  0  0  0  0
  6  1  1  0  0  0  0
  7  2  1  0  0  0  0
  8  2  1  0  0  0  0
  9  6  1  0  0  0  0
 10 12  1  0  0  0  0
 11 24  2  0  0  0  0
 12 26  2  0  0  0  0
 13  9  1  0  0  0  0
 14  5  2  0  0  0  0
 15 10  1  0  0  0  0
 16  7  2  0  0  0  0
 17 11  1  0  0  0  0
 18 32  1  0  0  0  0
 19 10  2  0  0  0  0
 20 11  1  0  0  0  0
 21  3  1  0  0  0  0
 22 18  2  0  0  0  0
 23  4  1  0  0  0  0
 24 38  1  0  0  0  0
 25 34  2  0  0  0  0
 26 35  1  0  0  0  0
 27 13  2  0  0  0  0
 28 13  1  0  0  0  0
 29 17  1  0  0  0  0
 30 18  1  0  0  0  0
 31 33  1  0  0  0  0
 32 31  1  0  0  0  0
 33 36  1  0  0  0  0
 34 29  1  0  0  0  0
 35 29  2  0  0  0  0
 36 28  2  0  0  0  0
 37 27  1  0  0  0  0
 38 39  1  0  0  0  0
 39 30  1  0  0  0  0
 40 23  1  0  0  0  0
 41 21  1  0  0  0  0
 42 40  1  0  0  0  0
 43 41  1  0  0  0  0
  9  8  2  0  0  0  0
  4  7  1  0  0  0  0
 37 33  2  0  0  0  0
 25 12  1  0  0  0  0
M  CHG  2  10   1  15  -1
M  END
>  <Mol Weight>
608.669

>  <Formula>
C28H32N8O6S

>  <chembl_id>
CHEMBL9095

$$$$

  Mrv0541 06201412482D          

 38 39  0  0  1  0            999 V2000
    7.2542   -9.3875    0.0000 N   0  0  0  0  0  0  0  0  0  0  0  0
    6.5375   -9.8000    0.0000 C   0  0  0  0  0  0  0  0  0  0  0  0
    7.9667   -9.8000    0.0000 C   0  0  2  0  0  0  0  0  0  0  0  0
    8.6792   -9.3875    0.0000 C   0  0  0  0  0  0  0  0  0  0  0  0
    6.5375   -4.8500    0.0000 C   0  0  0  0  0  0  0  0  0  0  0  0
    4.3917   -8.5625    0.0000 C   0  0  0  0  0  0  0  0  0  0  0  0
    5.8250   -9.3875    0.0000 C   0  0  1  0  0  0  0  0  0  0  0  0
    5.1042   -9.8000    0.0000 C   0  0  0  0  0  0  0  0  0  0  0  0
    7.9667  -10.6250    0.0000 C   0  0  0  0  0  0  0  0  0  0  0  0
    6.5417   -5.6750    0.0000 C   0  0  0  0  0  0  0  0  0  0  0  0
    4.3917   -9.3875    0.0000 C   0  0  2  0  0  0  0  0  0  0  0  0
    7.2542   -4.4375    0.0000 C   0  0  0  0  0  0  0  0  0  0  0  0
    5.8250   -4.4417    0.0000 C   0  0  0  0  0  0  0  0  0  0  0  0
    6.5375  -10.6250    0.0000 O   0  0  0  0  0  0  0  0  0  0  0  0
    5.8167   -3.6167    0.0000 C   0  0  0  0  0  0  0  0  0  0  0  0
    7.2542   -3.6125    0.0000 C   0  0  0  0  0  0  0  0  0  0  0  0
    6.5375   -3.2000    0.0000 C   0  0  0  0  0  0  0  0  0  0  0  0
    8.6792   -8.5625    0.0000 O   0  0  0  0  0  0  0  0  0  0  0  0
    3.6792   -8.1417    0.0000 O   0  0  0  0  0  0  0  0  0  0  0  0
    5.8250   -8.5625    0.0000 C   0  0  0  0  0  0  0  0  0  0  0  0
    9.3917   -9.8000    0.0000 N   0  0  0  0  0  0  0  0  0  0  0  0
    5.8250   -6.0917    0.0000 C   0  0  0  0  0  0  0  0  0  0  0  0
    7.2542   -6.0875    0.0000 C   0  0  0  0  0  0  0  0  0  0  0  0
    5.1125   -8.1417    0.0000 O   0  0  0  0  0  0  0  0  0  0  0  0
    6.5375   -7.3250    0.0000 C   0  0  0  0  0  0  0  0  0  0  0  0
    7.9667   -3.2000    0.0000 Cl  0  0  0  0  0  0  0  0  0  0  0  0
    5.1042   -3.2125    0.0000 Cl  0  0  0  0  0  0  0  0  0  0  0  0
    6.5375   -8.1500    0.0000 C   0  0  0  0  0  0  0  0  0  0  0  0
    7.2542   -6.9125    0.0000 C   0  0  0  0  0  0  0  0  0  0  0  0
    5.8250   -6.9125    0.0000 C   0  0  0  0  0  0  0  0  0  0  0  0
    7.9625  -11.4417    0.0000 C   0  0  0  0  0  0  0  0  0  0  0  0
    7.2542  -11.0375    0.0000 C   0  0  0  0  0  0  0  0  0  0  0  0
    8.6792  -11.0375    0.0000 C   0  0  0  0  0  0  0  0  0  0  0  0
    3.6792   -9.8000    0.0000 C   0  0  0  0  0  0  0  0  0  0  0  0
   10.1125   -9.3875    0.0000 C   0  0  0  0  0  0  0  0  0  0  0  0
    2.9667   -9.3875    0.0000 C   0  0  0  0  0  0  0  0  0  0  0  0
    2.2500   -9.8000    0.0000 C   0  0  0  0  0  0  0  0  0  0  0  0
    1.5375   -9.3875    0.0000 C   0  0  0  0  0  0  0  0  0  0  0  0
  2  1  1  0  0  0  0
  3  1  1  0  0  0  0
  4  3  1  0  0  0  0
  5 10  1  0  0  0  0
 11  6  1  6  0  0  0
  7  2  1  0  0  0  0
  8  7  1  0  0  0  0
  3  9  1  6  0  0  0
 10 22  1  0  0  0  0
 11  8  1  0  0  0  0
 12  5  2  0  0  0  0
 13  5  1  0  0  0  0
 14  2  2  0  0  0  0
 15 13  2  0  0  0  0
 16 12  1  0  0  0  0
 17 15  1  0  0  0  0
 18  4  2  0  0  0  0
 19  6  2  0  0  0  0
  7 20  1  1  0  0  0
 21  4  1  0  0  0  0
 22 30  2  0  0  0  0
 23 29  1  0  0  0  0
 24  6  1  0  0  0  0
 25 28  1  0  0  0  0
 26 16  1  0  0  0  0
 27 15  1  0  0  0  0
 28 20  1  0  0  0  0
 29 25  2  0  0  0  0
 30 25  1  0  0  0  0
 31  9  1  0  0  0  0
 32  9  1  0  0  0  0
 33  9  1  0  0  0  0
 34 11  1  0  0  0  0
 35 21  1  0  0  0  0
 36 34  1  0  0  0  0
 37 36  1  0  0  0  0
 38 37  1  0  0  0  0
 10 23  2  0  0  0  0
 17 16  2  0  0  0  0
M  END
>  <Mol Weight>
563.556

>  <Formula>
C30H40Cl2N2O4

>  <chembl_id>
CHEMBL8917

$$$$

  Mrv0541 06201412482D          

 40 41  0  0  1  0            999 V2000
    3.3417    1.4708    0.0000 C   0  0  0  0  0  0  0  0  0  0  0  0
    2.6292    1.0583    0.0000 C   0  0  0  0  0  0  0  0  0  0  0  0
    1.9125    1.4750    0.0000 C   0  0  0  0  0  0  0  0  0  0  0  0
    3.3417    2.3000    0.0000 C   0  0  0  0  0  0  0  0  0  0  0  0
    2.6292    2.7208    0.0000 C   0  0  0  0  0  0  0  0  0  0  0  0
    1.9167    2.3000    0.0000 C   0  0  0  0  0  0  0  0  0  0  0  0
    4.0542    1.0583    0.0000 C   0  0  2  0  0  0  0  0  0  0  0  0
    1.2000    1.0583    0.0000 C   0  0  0  0  0  0  0  0  0  0  0  0
    4.0542    0.2333    0.0000 O   0  0  0  0  0  0  0  0  0  0  0  0
    1.2000    2.7125    0.0000 C   0  0  0  0  0  0  0  0  0  0  0  0
    2.6250    0.2333    0.0000 O   0  0  0  0  0  0  0  0  0  0  0  0
    4.7667   -0.1792    0.0000 C   0  0  0  0  0  0  0  0  0  0  0  0
    5.4875    1.0583    0.0000 C   0  0  0  0  0  0  0  0  0  0  0  0
    2.6292    3.5458    0.0000 O   0  0  0  0  0  0  0  0  0  0  0  0
    4.7750    1.4708    0.0000 C   0  0  0  0  0  0  0  0  0  0  0  0
    6.2042    1.4625    0.0000 C   0  0  0  0  0  0  0  0  0  0  0  0
    5.4875    0.2333    0.0000 O   0  0  0  0  0  0  0  0  0  0  0  0
    0.4875    1.4708    0.0000 C   0  0  0  0  0  0  0  0  0  0  0  0
    0.4875    2.2958    0.0000 C   0  0  0  0  0  0  0  0  0  0  0  0
    7.6125   -5.9667    0.0000 C   0  0  0  0  0  0  0  0  0  0  0  0
    8.3250   -7.2042    0.0000 C   0  0  0  0  0  0  0  0  0  0  0  0
    7.6125   -5.1417    0.0000 C   0  0  0  0  0  0  0  0  0  0  0  0
    9.0375   -7.6167    0.0000 C   0  0  0  0  0  0  0  0  0  0  0  0
    1.2042    0.2333    0.0000 O   0  0  0  0  0  0  0  0  0  0  0  0
    1.1917    3.5458    0.0000 O   0  0  0  0  0  0  0  0  0  0  0  0
    8.3250   -6.3792    0.0000 C   0  0  0  0  0  0  0  0  0  0  0  0
    4.7667   -1.0042    0.0000 C   0  0  0  0  0  0  0  0  0  0  0  0
    6.2042    2.2875    0.0000 C   0  0  0  0  0  0  0  0  0  0  0  0
    6.9167    1.0500    0.0000 C   0  0  0  0  0  0  0  0  0  0  0  0
    6.9000   -4.7250    0.0000 C   0  0  0  0  0  0  0  0  0  0  0  0
    9.0292   -8.4417    0.0000 C   0  0  0  0  0  0  0  0  0  0  0  0
    5.4792   -1.4167    0.0000 C   0  0  0  0  0  0  0  0  0  0  0  0
    6.9042   -3.9000    0.0000 C   0  0  0  0  0  0  0  0  0  0  0  0
    9.7417   -8.8542    0.0000 C   0  0  0  0  0  0  0  0  0  0  0  0
   10.4542  -10.1000    0.0000 C   0  0  0  0  0  0  0  0  0  0  0  0
    9.7417   -9.6792    0.0000 C   0  0  0  0  0  0  0  0  0  0  0  0
    6.1917   -3.4875    0.0000 C   0  0  0  0  0  0  0  0  0  0  0  0
    5.4792   -2.2417    0.0000 C   0  0  0  0  0  0  0  0  0  0  0  0
    6.1917   -2.6625    0.0000 C   0  0  0  0  0  0  0  0  0  0  0  0
   10.4542  -10.9250    0.0000 C   0  0  0  0  0  0  0  0  0  0  0  0
  2  1  1  0  0  0  0
  3  2  1  0  0  0  0
  4  1  2  0  0  0  0
  5  4  1  0  0  0  0
  6  5  1  0  0  0  0
  7  1  1  0  0  0  0
  8  3  2  0  0  0  0
  7  9  1  1  0  0  0
 10  6  2  0  0  0  0
 11  2  2  0  0  0  0
 12  9  1  0  0  0  0
 13 15  1  0  0  0  0
 14  5  2  0  0  0  0
 15  7  1  0  0  0  0
 16 13  2  0  0  0  0
 17 12  2  0  0  0  0
 18  8  1  0  0  0  0
 19 10  1  0  0  0  0
 20 22  2  0  0  0  0
 21 26  1  0  0  0  0
 22 30  1  0  0  0  0
 23 21  2  0  0  0  0
 24  8  1  0  0  0  0
 25 10  1  0  0  0  0
 26 20  1  0  0  0  0
 27 12  1  0  0  0  0
 28 16  1  0  0  0  0
 29 16  1  0  0  0  0
 30 33  1  0  0  0  0
 31 23  1  0  0  0  0
 32 27  1  0  0  0  0
 33 37  1  0  0  0  0
 34 31  1  0  0  0  0
 35 36  1  0  0  0  0
 36 34  1  0  0  0  0
 37 39  1  0  0  0  0
 38 32  1  0  0  0  0
 39 38  1  0  0  0  0
 40 35  1  0  0  0  0
  3  6  1  0  0  0  0
 18 19  2  0  0  0  0
M  END
>  <Mol Weight>
550.7254

>  <Formula>
C34H46O6

>  <chembl_id>
CHEMBL8940

$$$$

  Mrv0541 06201412482D          

 43 47  0  0  1  0            999 V2000
    0.2660    0.7727    0.0000 C   0  0  0  0  0  0  0  0  0  0  0  0
   -0.4497    0.3610    0.0000 C   0  0  1  0  0  0  0  0  0  0  0  0
   -1.1717    0.7601    0.0000 C   0  0  2  0  0  0  0  0  0  0  0  0
    0.9881    1.1591    0.0000 O   0  0  0  0  0  0  0  0  0  0  0  0
    0.2660    1.5962    0.0000 C   0  0  2  0  0  0  0  0  0  0  0  0
   -1.1717    1.5962    0.0000 C   0  0  2  0  0  0  0  0  0  0  0  0
    1.4441    0.3547    0.0000 C   0  0  2  0  0  0  0  0  0  0  0  0
   -0.3610    1.1971    0.0000 C   0  0  0  0  0  0  0  0  0  0  0  0
   -0.4560    2.0142    0.0000 O   0  0  0  0  0  0  0  0  0  0  0  0
   -1.8812    0.3547    0.0000 C   0  0  0  0  0  0  0  0  0  0  0  0
    2.0206   -0.2344    0.0000 O   0  0  0  0  0  0  0  0  0  0  0  0
    1.5012    1.5962    0.0000 C   0  0  0  0  0  0  0  0  0  0  0  0
   -1.1717   -0.7285    0.0000 C   0  0  0  0  0  0  0  0  0  0  0  0
    1.6786   -4.9279    0.0000 O   0  0  0  0  0  0  0  0  0  0  0  0
    2.7363    0.1710    0.0000 C   0  0  0  0  0  0  0  0  0  0  0  0
   -0.4370   -1.1971    0.0000 O   0  0  0  0  0  0  0  0  0  0  0  0
   -0.4370   -2.0206    0.0000 C   0  0  0  0  0  0  0  0  0  0  0  0
   -1.8812    2.0078    0.0000 C   0  0  0  0  0  0  0  0  0  0  0  0
    0.9691   -4.5098    0.0000 C   0  0  1  0  0  0  0  0  0  0  0  0
   -2.5969    0.7601    0.0000 C   0  0  2  0  0  0  0  0  0  0  0  0
    2.3942   -4.5098    0.0000 C   0  0  0  0  0  0  0  0  0  0  0  0
   -2.5969    1.5962    0.0000 C   0  0  2  0  0  0  0  0  0  0  0  0
    3.4584   -0.2280    0.0000 C   0  0  0  0  0  0  0  0  0  0  0  0
    2.7427   -2.5336    0.0000 C   0  0  0  0  0  0  0  0  0  0  0  0
    2.7237    1.0071    0.0000 O   0  0  0  0  0  0  0  0  0  0  0  0
   -1.1717   -2.4323    0.0000 O   0  0  0  0  0  0  0  0  0  0  0  0
    3.4584   -1.0641    0.0000 C   0  0  0  0  0  0  0  0  0  0  0  0
    2.7553   -1.4822    0.0000 C   0  0  0  0  0  0  0  0  0  0  0  0
    0.2660   -2.4386    0.0000 C   0  0  0  0  0  0  0  0  0  0  0  0
    0.9691   -3.6864    0.0000 C   0  0  0  0  0  0  0  0  0  0  0  0
   -0.4560   -0.4624    0.0000 C   0  0  0  0  0  0  0  0  0  0  0  0
    0.2660   -3.2683    0.0000 C   0  0  0  0  0  0  0  0  0  0  0  0
    3.0657   -4.9785    0.0000 C   0  0  0  0  0  0  0  0  0  0  0  0
    0.2470   -4.9215    0.0000 O   0  0  0  0  0  0  0  0  0  0  0  0
   -3.4204    0.7601    0.0000 O   0  0  0  0  0  0  0  0  0  0  0  0
    2.9897   -5.8020    0.0000 O   0  0  0  0  0  0  0  0  0  0  0  0
   -3.4204    1.5962    0.0000 C   0  0  0  0  0  0  0  0  0  0  0  0
   -0.5321   -3.7118    0.0000 C   0  0  0  0  0  0  0  0  0  0  0  0
    3.8068   -4.6365    0.0000 C   0  0  0  0  0  0  0  0  0  0  0  0
   -2.9844   -0.7099    0.0000 H   0  0  0  0  0  0  0  0  0  0  0  0
    0.6604    3.0643    0.0000 H   0  0  0  0  0  0  0  0  0  0  0  0
   -1.1739    3.1163    0.0000 H   0  0  0  0  0  0  0  0  0  0  0  0
    2.8646    0.8963    0.0000 H   0  0  0  0  0  0  0  0  0  0  0  0
  2  1  1  0  0  0  0
  3  2  1  0  0  0  0
  4  1  1  0  0  0  0
  5  1  1  0  0  0  0
  6  9  1  0  0  0  0
  7  2  1  0  0  0  0
  8  1  1  0  0  0  0
  9  5  1  0  0  0  0
  3 10  1  1  0  0  0
  7 11  1  0  0  0  0
 12  5  1  0  0  0  0
  3 13  1  0  0  0  0
 14 21  1  0  0  0  0
 15 11  1  0  0  0  0
 16 13  1  0  0  0  0
 17 16  1  0  0  0  0
 18  6  1  0  0  0  0
 19 30  1  0  0  0  0
 20 10  1  0  0  0  0
 21 24  1  0  0  0  0
 22 18  1  0  0  0  0
 23 15  1  0  0  0  0
 24 28  2  0  0  0  0
 25 15  2  0  0  0  0
 26 17  2  0  0  0  0
 27 23  2  0  0  0  0
 28 27  1  0  0  0  0
 29 17  1  0  0  0  0
 30 32  1  0  0  0  0
  2 31  1  1  0  0  0
 32 29  1  0  0  0  0
 33 21  1  0  0  0  0
 19 34  1  6  0  0  0
 20 35  1  0  0  0  0
 36 33  1  0  0  0  0
 22 37  1  6  0  0  0
 38 32  1  0  0  0  0
 39 33  1  0  0  0  0
 20 40  1  6  0  0  0
  5 41  1  1  0  0  0
  6 42  1  6  0  0  0
  4  8  1  0  0  0  0
  7 12  1  0  0  0  0
  6  3  1  0  0  0  0
 20 22  1  0  0  0  0
 14 19  1  0  0  0  0
  7 43  1  6  0  0  0
M  END
>  <Mol Weight>
550.6378

>  <Formula>
C29H42O10

>  <chembl_id>
CHEMBL9412

$$$$

  Mrv0541 06201412482D          

 42 44  0  0  1  0            999 V2000
    7.5531   -8.5677    0.0000 C   0  0  0  0  0  0  0  0  0  0  0  0
    6.1169   -8.5677    0.0000 N   0  0  0  0  0  0  0  0  0  0  0  0
    5.4029   -8.9811    0.0000 C   0  0  0  0  0  0  0  0  0  0  0  0
    6.8308   -8.9811    0.0000 C   0  0  1  0  0  0  0  0  0  0  0  0
    8.2671   -8.9811    0.0000 N   0  0  0  0  0  0  0  0  0  0  0  0
    3.2567   -7.7410    0.0000 C   0  0  0  0  0  0  0  0  0  0  0  0
    4.6889   -8.5677    0.0000 C   0  0  1  0  0  0  0  0  0  0  0  0
    3.9707   -8.9811    0.0000 C   0  0  0  0  0  0  0  0  0  0  0  0
    6.8308   -9.8078    0.0000 C   0  0  0  0  0  0  0  0  0  0  0  0
    5.4029   -4.0125    0.0000 C   0  0  0  0  0  0  0  0  0  0  0  0
    3.2567   -8.5677    0.0000 C   0  0  2  0  0  0  0  0  0  0  0  0
    5.4029   -4.8475    0.0000 C   0  0  0  0  0  0  0  0  0  0  0  0
    7.5531   -7.7410    0.0000 O   0  0  0  0  0  0  0  0  0  0  0  0
    5.4029   -9.8078    0.0000 O   0  0  0  0  0  0  0  0  0  0  0  0
    6.1169   -3.6075    0.0000 C   0  0  0  0  0  0  0  0  0  0  0  0
    2.5428   -7.3193    0.0000 O   0  0  0  0  0  0  0  0  0  0  0  0
    4.6889   -7.7410    0.0000 C   0  0  0  0  0  0  0  0  0  0  0  0
    4.6889   -5.2651    0.0000 C   0  0  0  0  0  0  0  0  0  0  0  0
    6.1169   -5.2609    0.0000 C   0  0  0  0  0  0  0  0  0  0  0  0
    8.9853   -8.5677    0.0000 C   0  0  0  0  0  0  0  0  0  0  0  0
    6.1169   -2.7808    0.0000 C   0  0  0  0  0  0  0  0  0  0  0  0
    3.9749   -7.3193    0.0000 O   0  0  0  0  0  0  0  0  0  0  0  0
    5.4029   -6.5009    0.0000 C   0  0  0  0  0  0  0  0  0  0  0  0
    5.4029   -7.3277    0.0000 C   0  0  0  0  0  0  0  0  0  0  0  0
    6.8308   -2.3674    0.0000 N   0  0  0  0  0  0  0  0  0  0  0  0
    6.1169   -6.0876    0.0000 C   0  0  0  0  0  0  0  0  0  0  0  0
    4.6889   -6.0876    0.0000 C   0  0  0  0  0  0  0  0  0  0  0  0
    4.6889   -3.6117    0.0000 C   0  0  0  0  0  0  0  0  0  0  0  0
    4.6847   -2.7850    0.0000 C   0  0  0  0  0  0  0  0  0  0  0  0
    6.1169  -10.2211    0.0000 C   0  0  0  0  0  0  0  0  0  0  0  0
    7.5531  -10.2211    0.0000 C   0  0  0  0  0  0  0  0  0  0  0  0
    6.8308  -10.6262    0.0000 C   0  0  0  0  0  0  0  0  0  0  0  0
    2.5344   -8.9811    0.0000 C   0  0  0  0  0  0  0  0  0  0  0  0
    5.4029   -2.3674    0.0000 C   0  0  0  0  0  0  0  0  0  0  0  0
    9.6993   -8.9811    0.0000 C   0  0  0  0  0  0  0  0  0  0  0  0
    8.9811   -7.7452    0.0000 C   0  0  0  0  0  0  0  0  0  0  0  0
    1.8205   -8.5677    0.0000 C   0  0  0  0  0  0  0  0  0  0  0  0
    1.1065   -8.9811    0.0000 C   0  0  0  0  0  0  0  0  0  0  0  0
    0.3925   -8.5677    0.0000 C   0  0  0  0  0  0  0  0  0  0  0  0
    9.6951   -7.3277    0.0000 C   0  0  0  0  0  0  0  0  0  0  0  0
   10.4132   -8.5719    0.0000 C   0  0  0  0  0  0  0  0  0  0  0  0
   10.4132   -7.7410    0.0000 C   0  0  0  0  0  0  0  0  0  0  0  0
  2  4  1  0  0  0  0
  3  2  1  0  0  0  0
  4  1  1  0  0  0  0
  5  1  1  0  0  0  0
 11  6  1  6  0  0  0
  7  3  1  0  0  0  0
  8  7  1  0  0  0  0
  4  9  1  6  0  0  0
 10 12  1  0  0  0  0
 11  8  1  0  0  0  0
 12 18  1  0  0  0  0
 13  1  2  0  0  0  0
 14  3  2  0  0  0  0
 15 10  2  0  0  0  0
 16  6  2  0  0  0  0
  7 17  1  1  0  0  0
 18 27  2  0  0  0  0
 19 26  1  0  0  0  0
 20  5  1  0  0  0  0
 21 15  1  0  0  0  0
 22  6  1  0  0  0  0
 23 24  1  0  0  0  0
 24 17  1  0  0  0  0
 25 21  1  0  0  0  0
 26 23  2  0  0  0  0
 27 23  1  0  0  0  0
 28 10  1  0  0  0  0
 29 28  2  0  0  0  0
 30  9  1  0  0  0  0
 31  9  1  0  0  0  0
 32  9  1  0  0  0  0
 33 11  1  0  0  0  0
 34 29  1  0  0  0  0
 35 20  2  0  0  0  0
 36 20  1  0  0  0  0
 37 33  1  0  0  0  0
 38 37  1  0  0  0  0
 39 38  1  0  0  0  0
 40 36  2  0  0  0  0
 41 35  1  0  0  0  0
 42 40  1  0  0  0  0
 42 41  2  0  0  0  0
 12 19  2  0  0  0  0
 34 21  2  0  0  0  0
M  END
>  <Mol Weight>
571.7495

>  <Formula>
C35H45N3O4

>  <chembl_id>
CHEMBL9102

$$$$

  Mrv0541 06201412482D          

 37 38  0  0  1  0            999 V2000
    7.2542   -9.3875    0.0000 N   0  0  0  0  0  0  0  0  0  0  0  0
    6.5375   -9.8000    0.0000 C   0  0  0  0  0  0  0  0  0  0  0  0
    7.9667   -9.8000    0.0000 C   0  0  2  0  0  0  0  0  0  0  0  0
    8.6792   -9.3875    0.0000 C   0  0  0  0  0  0  0  0  0  0  0  0
    4.3917   -8.5625    0.0000 C   0  0  0  0  0  0  0  0  0  0  0  0
    5.8250   -9.3875    0.0000 C   0  0  1  0  0  0  0  0  0  0  0  0
    5.1042   -9.8000    0.0000 C   0  0  0  0  0  0  0  0  0  0  0  0
    7.9667  -10.6250    0.0000 C   0  0  0  0  0  0  0  0  0  0  0  0
    4.3917   -9.3875    0.0000 C   0  0  2  0  0  0  0  0  0  0  0  0
    6.5417   -5.6750    0.0000 C   0  0  0  0  0  0  0  0  0  0  0  0
    6.5375   -4.8500    0.0000 C   0  0  0  0  0  0  0  0  0  0  0  0
    6.5375  -10.6250    0.0000 O   0  0  0  0  0  0  0  0  0  0  0  0
    8.6792   -8.5625    0.0000 O   0  0  0  0  0  0  0  0  0  0  0  0
    3.6792   -8.1417    0.0000 O   0  0  0  0  0  0  0  0  0  0  0  0
    5.8250   -8.5625    0.0000 C   0  0  0  0  0  0  0  0  0  0  0  0
    9.3917   -9.8000    0.0000 N   0  0  0  0  0  0  0  0  0  0  0  0
    7.2542   -6.0875    0.0000 C   0  0  0  0  0  0  0  0  0  0  0  0
    7.2542   -4.4375    0.0000 C   0  0  0  0  0  0  0  0  0  0  0  0
    5.8250   -4.4417    0.0000 C   0  0  0  0  0  0  0  0  0  0  0  0
    5.8250   -6.0917    0.0000 C   0  0  0  0  0  0  0  0  0  0  0  0
    5.1125   -8.1417    0.0000 O   0  0  0  0  0  0  0  0  0  0  0  0
    6.5375   -3.2000    0.0000 C   0  0  0  0  0  0  0  0  0  0  0  0
    6.5375   -7.3250    0.0000 C   0  0  0  0  0  0  0  0  0  0  0  0
    6.5375   -8.1500    0.0000 C   0  0  0  0  0  0  0  0  0  0  0  0
    5.8167   -3.6167    0.0000 C   0  0  0  0  0  0  0  0  0  0  0  0
    7.2542   -3.6125    0.0000 C   0  0  0  0  0  0  0  0  0  0  0  0
    7.2542   -6.9125    0.0000 C   0  0  0  0  0  0  0  0  0  0  0  0
    5.8250   -6.9125    0.0000 C   0  0  0  0  0  0  0  0  0  0  0  0
    6.5292   -2.3792    0.0000 Br  0  0  0  0  0  0  0  0  0  0  0  0
    8.6792  -11.0375    0.0000 C   0  0  0  0  0  0  0  0  0  0  0  0
    7.9625  -11.4417    0.0000 C   0  0  0  0  0  0  0  0  0  0  0  0
    7.2542  -11.0375    0.0000 C   0  0  0  0  0  0  0  0  0  0  0  0
    3.6792   -9.8000    0.0000 C   0  0  0  0  0  0  0  0  0  0  0  0
   10.1125   -9.3875    0.0000 C   0  0  0  0  0  0  0  0  0  0  0  0
    2.9667   -9.3875    0.0000 C   0  0  0  0  0  0  0  0  0  0  0  0
    2.2500   -9.8000    0.0000 C   0  0  0  0  0  0  0  0  0  0  0  0
    1.5375   -9.3875    0.0000 C   0  0  0  0  0  0  0  0  0  0  0  0
  2  1  1  0  0  0  0
  3  1  1  0  0  0  0
  4  3  1  0  0  0  0
  9  5  1  6  0  0  0
  6  2  1  0  0  0  0
  7  6  1  0  0  0  0
  3  8  1  6  0  0  0
  9  7  1  0  0  0  0
 10 20  1  0  0  0  0
 11 10  1  0  0  0  0
 12  2  2  0  0  0  0
 13  4  2  0  0  0  0
 14  5  2  0  0  0  0
  6 15  1  1  0  0  0
 16  4  1  0  0  0  0
 17 27  1  0  0  0  0
 18 11  2  0  0  0  0
 19 11  1  0  0  0  0
 20 28  2  0  0  0  0
 21  5  1  0  0  0  0
 22 25  1  0  0  0  0
 23 24  1  0  0  0  0
 24 15  1  0  0  0  0
 25 19  2  0  0  0  0
 26 18  1  0  0  0  0
 27 23  2  0  0  0  0
 28 23  1  0  0  0  0
 29 22  1  0  0  0  0
 30  8  1  0  0  0  0
 31  8  1  0  0  0  0
 32  8  1  0  0  0  0
 33  9  1  0  0  0  0
 34 16  1  0  0  0  0
 35 33  1  0  0  0  0
 36 35  1  0  0  0  0
 37 36  1  0  0  0  0
 17 10  2  0  0  0  0
 26 22  2  0  0  0  0
M  END
>  <Mol Weight>
573.562

>  <Formula>
C30H41BrN2O4

>  <chembl_id>
CHEMBL8753

$$$$

  Mrv0541 06201412482D          

 42 44  0  0  1  0            999 V2000
   -3.1268    0.8878    0.0000 C   0  0  2  0  0  0  0  0  0  0  0  0
   -3.9503    0.5790    0.0000 O   0  0  0  0  0  0  0  0  0  0  0  0
   -3.1911    0.0986    0.0000 C   0  0  1  0  0  0  0  0  0  0  0  0
    2.3033   -0.6348    0.0000 C   0  0  2  0  0  0  0  0  0  0  0  0
    2.3033    0.2059    0.0000 C   0  0  1  0  0  0  0  0  0  0  0  0
    0.5790   -0.6477    0.0000 C   0  0  2  0  0  0  0  0  0  0  0  0
    1.4455   -1.0852    0.0000 O   0  0  0  0  0  0  0  0  0  0  0  0
    3.0153    0.5790    0.0000 C   0  0  2  0  0  0  0  0  0  0  0  0
   -2.9166   -0.6048    0.0000 C   0  0  1  0  0  0  0  0  0  0  0  0
   -0.1501   -1.0337    0.0000 C   0  0  2  0  0  0  0  0  0  0  0  0
   -1.6298   -1.6513    0.0000 C   0  0  0  0  0  0  0  0  0  0  0  0
    2.9896   -1.0594    0.0000 O   0  0  0  0  0  0  0  0  0  0  0  0
   -2.4147   -1.9430    0.0000 O   0  0  0  0  0  0  0  0  0  0  0  0
   -2.5091    1.3639    0.0000 C   0  0  0  0  0  0  0  0  0  0  0  0
   -0.9736   -2.1746    0.0000 C   0  0  0  0  0  0  0  0  0  0  0  0
   -0.2316   -1.8529    0.0000 C   0  0  1  0  0  0  0  0  0  0  0  0
   -3.0581   -1.4069    0.0000 C   0  0  2  0  0  0  0  0  0  0  0  0
    0.6091    0.1758    0.0000 C   0  0  2  0  0  0  0  0  0  0  0  0
   -1.7114    1.0765    0.0000 C   0  0  0  0  0  0  0  0  0  0  0  0
   -1.0765    1.5912    0.0000 C   0  0  0  0  0  0  0  0  0  0  0  0
    3.7487    0.1801    0.0000 C   0  0  0  0  0  0  0  0  0  0  0  0
   -0.1501    0.4718    0.0000 C   0  0  0  0  0  0  0  0  0  0  0  0
   -0.2916    1.2867    0.0000 C   0  0  1  0  0  0  0  0  0  0  0  0
    3.0153    1.4240    0.0000 N   0  0  0  0  0  0  0  0  0  0  0  0
    3.7487   -0.6606    0.0000 C   0  0  1  0  0  0  0  0  0  0  0  0
   -1.4883   -0.8621    0.0000 O   0  0  0  0  0  0  0  0  0  0  0  0
   -1.1967    2.4019    0.0000 O   0  0  0  0  0  0  0  0  0  0  0  0
    1.7028    0.6262    0.0000 O   0  0  0  0  0  0  0  0  0  0  0  0
    1.6728    2.1059    0.0000 O   0  0  0  0  0  0  0  0  0  0  0  0
   -3.4313    1.6170    0.0000 C   0  0  0  0  0  0  0  0  0  0  0  0
    0.4289   -2.3462    0.0000 O   0  0  0  0  0  0  0  0  0  0  0  0
    1.1323    1.5398    0.0000 C   0  0  0  0  0  0  0  0  0  0  0  0
   -2.0073   -0.3474    0.0000 C   0  0  0  0  0  0  0  0  0  0  0  0
   -0.8449   -0.5962    0.0000 C   0  0  0  0  0  0  0  0  0  0  0  0
    1.2481    0.6262    0.0000 C   0  0  0  0  0  0  0  0  0  0  0  0
   -3.8430   -1.7028    0.0000 C   0  0  0  0  0  0  0  0  0  0  0  0
    3.6072    1.8614    0.0000 C   0  0  0  0  0  0  0  0  0  0  0  0
    2.4105    1.7886    0.0000 C   0  0  0  0  0  0  0  0  0  0  0  0
    0.3517    1.8100    0.0000 C   0  0  0  0  0  0  0  0  0  0  0  0
    4.4693   -1.0937    0.0000 C   0  0  0  0  0  0  0  0  0  0  0  0
   -4.4735   -1.1581    0.0000 C   0  0  0  0  0  0  0  0  0  0  0  0
   -3.8988   -0.4375    0.0000 H   0  0  0  0  0  0  0  0  0  0  0  0
  2  1  1  0  0  0  0
  3  1  1  0  0  0  0
  4  7  1  1  0  0  0
  5  4  1  0  0  0  0
  6 18  1  0  0  0  0
  6  7  1  6  0  0  0
  8  5  1  0  0  0  0
  9  3  1  0  0  0  0
 10  6  1  0  0  0  0
 11 13  1  0  0  0  0
 12  4  1  0  0  0  0
 13 17  1  0  0  0  0
 14  1  1  0  0  0  0
 15 11  1  0  0  0  0
 16 15  1  0  0  0  0
 17  9  1  0  0  0  0
 18 22  1  0  0  0  0
 19 14  2  0  0  0  0
 20 19  1  0  0  0  0
 21 25  1  0  0  0  0
 22 23  1  0  0  0  0
 23 20  1  0  0  0  0
  8 24  1  1  0  0  0
 25 12  1  0  0  0  0
 26 11  2  0  0  0  0
 27 20  2  0  0  0  0
  5 28  1  6  0  0  0
 29 32  2  0  0  0  0
  1 30  1  6  0  0  0
 16 31  1  6  0  0  0
 32 35  1  0  0  0  0
  9 33  1  6  0  0  0
 10 34  1  6  0  0  0
 18 35  1  6  0  0  0
 17 36  1  6  0  0  0
 37 24  1  0  0  0  0
 38 24  1  0  0  0  0
 23 39  1  6  0  0  0
 25 40  1  1  0  0  0
 41 36  1  0  0  0  0
  3 42  1  1  0  0  0
  3  2  1  0  0  0  0
 16 10  1  0  0  0  0
  8 21  1  0  0  0  0
M  END
>  <Mol Weight>
581.7379

>  <Formula>
C31H51NO9

>  <chembl_id>
CHEMBL8965

$$$$

  Mrv0541 06201412482D          

 40 41  0  0  1  0            999 V2000
    6.5375   -2.3750    0.0000 S   0  0  0  0  0  0  0  0  0  0  0  0
    7.2542   -9.3875    0.0000 N   0  0  0  0  0  0  0  0  0  0  0  0
    6.5375   -9.8000    0.0000 C   0  0  0  0  0  0  0  0  0  0  0  0
    7.9667   -9.8000    0.0000 C   0  0  2  0  0  0  0  0  0  0  0  0
    8.6792   -9.3875    0.0000 C   0  0  0  0  0  0  0  0  0  0  0  0
    4.3917   -8.5625    0.0000 C   0  0  0  0  0  0  0  0  0  0  0  0
    6.5375   -3.2000    0.0000 C   0  0  0  0  0  0  0  0  0  0  0  0
    5.8250   -9.3875    0.0000 C   0  0  1  0  0  0  0  0  0  0  0  0
    5.1042   -9.8000    0.0000 C   0  0  0  0  0  0  0  0  0  0  0  0
    7.9667  -10.6250    0.0000 C   0  0  0  0  0  0  0  0  0  0  0  0
    5.8167   -1.9667    0.0000 O   0  0  0  0  0  0  0  0  0  0  0  0
    7.3292   -2.5875    0.0000 O   0  0  0  0  0  0  0  0  0  0  0  0
    4.3917   -9.3875    0.0000 C   0  0  2  0  0  0  0  0  0  0  0  0
    6.5375   -4.8500    0.0000 C   0  0  0  0  0  0  0  0  0  0  0  0
    6.5417   -5.6750    0.0000 C   0  0  0  0  0  0  0  0  0  0  0  0
    6.5375  -10.6250    0.0000 O   0  0  0  0  0  0  0  0  0  0  0  0
    8.6792   -8.5625    0.0000 O   0  0  0  0  0  0  0  0  0  0  0  0
    3.6792   -8.1417    0.0000 O   0  0  0  0  0  0  0  0  0  0  0  0
    7.2542   -3.6125    0.0000 C   0  0  0  0  0  0  0  0  0  0  0  0
    5.8167   -3.6167    0.0000 C   0  0  0  0  0  0  0  0  0  0  0  0
    7.2542   -4.4375    0.0000 C   0  0  0  0  0  0  0  0  0  0  0  0
    5.8250   -4.4417    0.0000 C   0  0  0  0  0  0  0  0  0  0  0  0
    5.8250   -8.5625    0.0000 C   0  0  0  0  0  0  0  0  0  0  0  0
    9.3917   -9.8000    0.0000 N   0  0  0  0  0  0  0  0  0  0  0  0
    7.2542   -6.0875    0.0000 C   0  0  0  0  0  0  0  0  0  0  0  0
    5.8250   -6.0917    0.0000 C   0  0  0  0  0  0  0  0  0  0  0  0
    5.1125   -8.1417    0.0000 O   0  0  0  0  0  0  0  0  0  0  0  0
    7.2500   -1.9625    0.0000 C   0  0  0  0  0  0  0  0  0  0  0  0
    6.5375   -7.3250    0.0000 C   0  0  0  0  0  0  0  0  0  0  0  0
    6.5375   -8.1500    0.0000 C   0  0  0  0  0  0  0  0  0  0  0  0
    7.2542   -6.9125    0.0000 C   0  0  0  0  0  0  0  0  0  0  0  0
    5.8250   -6.9125    0.0000 C   0  0  0  0  0  0  0  0  0  0  0  0
    8.6792  -11.0375    0.0000 C   0  0  0  0  0  0  0  0  0  0  0  0
    7.9625  -11.4417    0.0000 C   0  0  0  0  0  0  0  0  0  0  0  0
    7.2542  -11.0375    0.0000 C   0  0  0  0  0  0  0  0  0  0  0  0
    3.6792   -9.8000    0.0000 C   0  0  0  0  0  0  0  0  0  0  0  0
   10.1125   -9.3875    0.0000 C   0  0  0  0  0  0  0  0  0  0  0  0
    2.9667   -9.3875    0.0000 C   0  0  0  0  0  0  0  0  0  0  0  0
    2.2500   -9.8000    0.0000 C   0  0  0  0  0  0  0  0  0  0  0  0
    1.5375   -9.3875    0.0000 C   0  0  0  0  0  0  0  0  0  0  0  0
  2  3  1  0  0  0  0
  3  8  1  0  0  0  0
  4  2  1  0  0  0  0
  5  4  1  0  0  0  0
 13  6  1  6  0  0  0
  7  1  1  0  0  0  0
  8 23  1  1  0  0  0
  9  8  1  0  0  0  0
  4 10  1  6  0  0  0
 11  1  2  0  0  0  0
 12  1  2  0  0  0  0
 13  9  1  0  0  0  0
 14 22  1  0  0  0  0
 15 14  1  0  0  0  0
 16  3  2  0  0  0  0
 17  5  2  0  0  0  0
 18  6  2  0  0  0  0
 19  7  2  0  0  0  0
 20  7  1  0  0  0  0
 21 19  1  0  0  0  0
 22 20  2  0  0  0  0
 23 30  1  0  0  0  0
 24  5  1  0  0  0  0
 25 15  2  0  0  0  0
 26 15  1  0  0  0  0
 27  6  1  0  0  0  0
 28  1  1  0  0  0  0
 29 32  1  0  0  0  0
 30 29  1  0  0  0  0
 31 25  1  0  0  0  0
 32 26  2  0  0  0  0
 33 10  1  0  0  0  0
 34 10  1  0  0  0  0
 35 10  1  0  0  0  0
 36 13  1  0  0  0  0
 37 24  1  0  0  0  0
 38 36  1  0  0  0  0
 39 38  1  0  0  0  0
 40 39  1  0  0  0  0
 21 14  2  0  0  0  0
 31 29  2  0  0  0  0
M  END
>  <Mol Weight>
572.756

>  <Formula>
C31H44N2O6S

>  <chembl_id>
CHEMBL8761

$$$$

  Mrv0541 06201412482D          

 33 37  0  0  0  0            999 V2000
    3.4167   -2.3417    0.0000 C   0  0  0  0  0  0  0  0  0  0  0  0
    1.2792   -3.5792    0.0000 C   0  0  0  0  0  0  0  0  0  0  0  0
    1.2792   -4.4042    0.0000 C   0  0  0  0  0  0  0  0  0  0  0  0
    3.4292   -3.1625    0.0000 C   0  0  0  0  0  0  0  0  0  0  0  0
    1.9917   -3.1667    0.0000 C   0  0  0  0  0  0  0  0  0  0  0  0
    2.7042   -3.5792    0.0000 C   0  0  0  0  0  0  0  0  0  0  0  0
    4.1292   -1.9167    0.0000 C   0  0  0  0  0  0  0  0  0  0  0  0
    1.9917   -4.8167    0.0000 C   0  0  0  0  0  0  0  0  0  0  0  0
    2.7042   -1.9292    0.0000 C   0  0  0  0  0  0  0  0  0  0  0  0
    5.5542   -1.0792    0.0000 C   0  0  0  0  0  0  0  0  0  0  0  0
    4.8375   -0.6750    0.0000 N   0  0  0  0  0  0  0  0  0  0  0  0
    2.7042   -4.4042    0.0000 C   0  0  0  0  0  0  0  0  0  0  0  0
    1.9917   -2.3417    0.0000 C   0  0  0  0  0  0  0  0  0  0  0  0
    4.8542   -3.1500    0.0000 C   0  0  0  0  0  0  0  0  0  0  0  0
    4.1250   -1.0917    0.0000 C   0  0  0  0  0  0  0  0  0  0  0  0
    0.5625   -3.1667    0.0000 C   0  0  0  0  0  0  0  0  0  0  0  0
    4.8417   -2.3292    0.0000 C   0  0  0  0  0  0  0  0  0  0  0  0
    0.5625   -4.8167    0.0000 C   0  0  0  0  0  0  0  0  0  0  0  0
    5.5542   -1.9042    0.0000 O   0  0  0  0  0  0  0  0  0  0  0  0
    6.2667   -0.6667    0.0000 C   0  0  0  0  0  0  0  0  0  0  0  0
    6.9792   -1.0667    0.0000 C   0  0  0  0  0  0  0  0  0  0  0  0
    7.6875   -0.6500    0.0000 C   0  0  0  0  0  0  0  0  0  0  0  0
    3.4167   -1.5167    0.0000 C   0  0  0  0  0  0  0  0  0  0  0  0
   -0.1458   -3.5792    0.0000 C   0  0  0  0  0  0  0  0  0  0  0  0
   -0.1458   -4.4042    0.0000 C   0  0  0  0  0  0  0  0  0  0  0  0
    1.2750   -2.7542    0.0000 C   0  0  0  0  0  0  0  0  0  0  0  0
    8.4042   -1.0542    0.0000 C   0  0  0  0  0  0  0  0  0  0  0  0
    9.1125   -0.6292    0.0000 I   0  0  0  0  0  0  0  0  0  0  0  0
   -0.8625   -4.8125    0.0000 O   0  0  0  0  0  0  0  0  0  0  0  0
    7.7042   -2.3000    0.0000 C   0  0  0  0  0  0  0  0  0  0  0  0
    3.4042   -0.6875    0.0000 C   0  0  0  0  0  0  0  0  0  0  0  0
    6.9792   -1.8917    0.0000 C   0  0  0  0  0  0  0  0  0  0  0  0
    8.4125   -1.8792    0.0000 C   0  0  0  0  0  0  0  0  0  0  0  0
  2  5  1  0  0  0  0
  3  2  1  0  0  0  0
  4  1  1  0  0  0  0
  5 13  1  0  0  0  0
  6  4  1  0  0  0  0
  7  1  1  0  0  0  0
  8 12  1  0  0  0  0
  9  1  1  0  0  0  0
 10 11  1  0  0  0  0
 11 15  1  0  0  0  0
 12  6  1  0  0  0  0
 13  9  1  0  0  0  0
 14  4  1  0  0  0  0
 15  7  1  0  0  0  0
 16  2  1  0  0  0  0
 17  7  1  0  0  0  0
 18  3  1  0  0  0  0
 19 10  2  0  0  0  0
 20 10  1  0  0  0  0
 21 20  1  0  0  0  0
 22 21  1  0  0  0  0
 23  1  1  0  0  0  0
 24 16  1  0  0  0  0
 25 24  1  0  0  0  0
 26  2  1  0  0  0  0
 27 22  2  0  0  0  0
 28 27  1  0  0  0  0
 29 25  1  0  0  0  0
 30 32  1  0  0  0  0
 31 15  1  0  0  0  0
 32 21  2  0  0  0  0
 33 30  2  0  0  0  0
 17 14  1  0  0  0  0
  6  5  1  0  0  0  0
  8  3  2  0  0  0  0
 25 18  1  0  0  0  0
 33 27  1  0  0  0  0
M  END
>  <Mol Weight>
561.5379

>  <Formula>
C29H40INO2

>  <chembl_id>
CHEMBL8762

$$$$

  Mrv0541 06201412482D          

 41 44  0  0  1  0            999 V2000
   10.3870   -8.4105    0.0000 N   0  0  0  0  0  0  0  0  0  0  0  0
    9.5964   -8.6339    0.0000 C   0  0  0  0  0  0  0  0  0  0  0  0
   10.1808   -7.6198    0.0000 C   0  0  0  0  0  0  0  0  0  0  0  0
    9.3901   -7.8261    0.0000 C   0  0  2  0  0  0  0  0  0  0  0  0
   11.1948   -8.6339    0.0000 C   0  0  0  0  0  0  0  0  0  0  0  0
   10.7651   -7.0355    0.0000 S   0  0  0  0  0  0  0  0  0  0  0  0
   11.7792   -8.0495    0.0000 C   0  0  0  0  0  0  0  0  0  0  0  0
    6.5198   -8.6683    0.0000 C   0  0  0  0  0  0  0  0  0  0  0  0
    8.6683   -7.4136    0.0000 N   0  0  0  0  0  0  0  0  0  0  0  0
    6.5198   -7.8433    0.0000 N   0  0  0  0  0  0  0  0  0  0  0  0
    7.2417   -7.4308    0.0000 C   0  0  0  0  0  0  0  0  0  0  0  0
    7.9464   -7.8261    0.0000 C   0  0  0  0  0  0  0  0  0  0  0  0
   11.4011   -9.4245    0.0000 C   0  0  0  0  0  0  0  0  0  0  0  0
   11.5558   -7.2417    0.0000 C   0  0  0  0  0  0  0  0  0  0  0  0
    5.8151   -9.0808    0.0000 N   0  0  0  0  0  0  0  0  0  0  0  0
    9.1839   -9.3386    0.0000 O   0  0  0  0  0  0  0  0  0  0  0  0
    5.8151   -7.4308    0.0000 O   0  0  0  0  0  0  0  0  0  0  0  0
   12.5698   -8.2558    0.0000 C   0  0  0  0  0  0  0  0  0  0  0  0
   13.9448   -7.8948    0.0000 C   0  0  0  0  0  0  0  0  0  0  0  0
    7.2417   -9.0808    0.0000 O   0  0  0  0  0  0  0  0  0  0  0  0
   12.1917   -9.6308    0.0000 O   0  0  0  0  0  0  0  0  0  0  0  0
    7.9464   -8.6511    0.0000 O   0  0  0  0  0  0  0  0  0  0  0  0
   13.1542   -7.6714    0.0000 O   0  0  0  0  0  0  0  0  0  0  0  0
   14.1683   -8.6855    0.0000 O   0  0  0  0  0  0  0  0  0  0  0  0
    5.8151   -9.9058    0.0000 C   0  0  0  0  0  0  0  0  0  0  0  0
   10.8167  -10.0089    0.0000 O   0  0  0  0  0  0  0  0  0  0  0  0
    5.0933   -7.8433    0.0000 C   0  0  0  0  0  0  0  0  0  0  0  0
    3.6667   -7.8433    0.0000 C   0  0  0  0  0  0  0  0  0  0  0  0
    2.9448   -7.4308    0.0000 C   0  0  0  0  0  0  0  0  0  0  0  0
    4.3714   -7.4308    0.0000 C   0  0  0  0  0  0  0  0  0  0  0  0
    2.2401   -7.8433    0.0000 Cl  0  0  0  0  0  0  0  0  0  0  0  0
    5.1105  -10.3183    0.0000 C   0  0  0  0  0  0  0  0  0  0  0  0
    3.6667   -6.1933    0.0000 C   0  0  0  0  0  0  0  0  0  0  0  0
   14.5292   -7.3105    0.0000 C   0  0  0  0  0  0  0  0  0  0  0  0
    2.9448   -6.6058    0.0000 C   0  0  0  0  0  0  0  0  0  0  0  0
    4.3714   -6.6058    0.0000 C   0  0  0  0  0  0  0  0  0  0  0  0
    5.1276  -11.1433    0.0000 C   0  0  0  0  0  0  0  0  0  0  0  0
    4.3886   -9.9058    0.0000 C   0  0  0  0  0  0  0  0  0  0  0  0
    3.6839  -10.3183    0.0000 C   0  0  0  0  0  0  0  0  0  0  0  0
    4.4058  -11.5558    0.0000 C   0  0  0  0  0  0  0  0  0  0  0  0
    3.6839  -11.1605    0.0000 C   0  0  0  0  0  0  0  0  0  0  0  0
  2  1  1  0  0  0  0
  3  1  1  0  0  0  0
  4  3  1  0  0  0  0
  5  1  1  0  0  0  0
  6  3  1  0  0  0  0
  7  5  2  0  0  0  0
  8 10  1  0  0  0  0
  4  9  1  1  0  0  0
 10 11  1  0  0  0  0
 11 12  1  0  0  0  0
 12  9  1  0  0  0  0
 13  5  1  0  0  0  0
 14  7  1  0  0  0  0
 15  8  1  0  0  0  0
 16  2  2  0  0  0  0
 17 10  1  0  0  0  0
 18  7  1  0  0  0  0
 19 23  1  0  0  0  0
 20  8  2  0  0  0  0
 21 13  2  0  0  0  0
 22 12  2  0  0  0  0
 23 18  1  0  0  0  0
 24 19  2  0  0  0  0
 25 15  1  0  0  0  0
 26 13  1  0  0  0  0
 27 17  1  0  0  0  0
 28 30  2  0  0  0  0
 29 28  1  0  0  0  0
 30 27  1  0  0  0  0
 31 29  1  0  0  0  0
 32 25  1  0  0  0  0
 33 36  2  0  0  0  0
 34 19  1  0  0  0  0
 35 33  1  0  0  0  0
 36 30  1  0  0  0  0
 37 32  1  0  0  0  0
 38 32  2  0  0  0  0
 39 38  1  0  0  0  0
 40 37  2  0  0  0  0
 41 39  2  0  0  0  0
  2  4  1  0  0  0  0
 14  6  1  0  0  0  0
 35 29  2  0  0  0  0
 40 41  1  0  0  0  0
M  END
>  <Mol Weight>
603.043

>  <Formula>
C27H27ClN4O8S

>  <chembl_id>
CHEMBL8851

$$$$

  Mrv0541 06201412482D          

 42 47  0  0  0  0            999 V2000
    0.2875   -6.2750    0.0000 N   0  0  0  0  0  0  0  0  0  0  0  0
   10.2875   -6.2167    0.0000 N   0  0  0  0  0  0  0  0  0  0  0  0
    9.5750   -5.8125    0.0000 C   0  0  0  0  0  0  0  0  0  0  0  0
    1.0000   -5.8542    0.0000 C   0  0  0  0  0  0  0  0  0  0  0  0
    1.7167   -6.2667    0.0000 C   0  0  0  0  0  0  0  0  0  0  0  0
    8.8625   -6.2292    0.0000 C   0  0  0  0  0  0  0  0  0  0  0  0
    8.8667   -7.0542    0.0000 C   0  0  0  0  0  0  0  0  0  0  0  0
    1.7250   -7.0917    0.0000 C   0  0  0  0  0  0  0  0  0  0  0  0
    0.9917   -5.0292    0.0000 C   0  0  0  0  0  0  0  0  0  0  0  0
    9.5667   -4.9917    0.0000 C   0  0  0  0  0  0  0  0  0  0  0  0
   -0.4333   -5.8625    0.0000 C   0  0  0  0  0  0  0  0  0  0  0  0
   10.9917   -5.8000    0.0000 C   0  0  0  0  0  0  0  0  0  0  0  0
   10.2667   -4.5750    0.0000 C   0  0  0  0  0  0  0  0  0  0  0  0
    0.2792   -4.6167    0.0000 C   0  0  0  0  0  0  0  0  0  0  0  0
   10.9917   -4.9792    0.0000 C   0  0  0  0  0  0  0  0  0  0  0  0
   -0.4333   -5.0375    0.0000 C   0  0  0  0  0  0  0  0  0  0  0  0
    9.5792   -7.4625    0.0000 O   0  0  0  0  0  0  0  0  0  0  0  0
    1.0125   -7.5042    0.0000 O   0  0  0  0  0  0  0  0  0  0  0  0
    8.1542   -7.4667    0.0000 N   0  0  0  0  0  0  0  0  0  0  0  0
    2.4417   -7.5000    0.0000 N   0  0  0  0  0  0  0  0  0  0  0  0
    2.4292   -5.8500    0.0000 C   0  0  0  0  0  0  0  0  0  0  0  0
    8.1417   -5.8250    0.0000 C   0  0  0  0  0  0  0  0  0  0  0  0
    5.2917   -7.4875    0.0000 N   0  0  0  0  0  0  0  0  0  0  0  0
    6.7250   -7.4792    0.0000 C   0  0  0  0  0  0  0  0  0  0  0  0
    3.8667   -7.4917    0.0000 C   0  0  0  0  0  0  0  0  0  0  0  0
    8.8542   -4.5792    0.0000 C   0  0  0  0  0  0  0  0  0  0  0  0
    1.7042   -4.6125    0.0000 C   0  0  0  0  0  0  0  0  0  0  0  0
    8.1375   -5.0000    0.0000 C   0  0  0  0  0  0  0  0  0  0  0  0
    2.4250   -5.0167    0.0000 C   0  0  0  0  0  0  0  0  0  0  0  0
    7.4375   -7.0625    0.0000 C   0  0  0  0  0  0  0  0  0  0  0  0
    3.1542   -7.0875    0.0000 C   0  0  0  0  0  0  0  0  0  0  0  0
    6.0042   -7.0667    0.0000 C   0  0  0  0  0  0  0  0  0  0  0  0
    4.5792   -7.0792    0.0000 C   0  0  0  0  0  0  0  0  0  0  0  0
   11.7042   -6.2042    0.0000 C   0  0  0  0  0  0  0  0  0  0  0  0
   -1.1458   -6.2792    0.0000 C   0  0  0  0  0  0  0  0  0  0  0  0
   -1.1458   -4.6292    0.0000 C   0  0  0  0  0  0  0  0  0  0  0  0
   11.6917   -4.5625    0.0000 C   0  0  0  0  0  0  0  0  0  0  0  0
    5.3042   -8.3125    0.0000 C   0  0  0  0  0  0  0  0  0  0  0  0
   -1.8583   -5.0375    0.0000 C   0  0  0  0  0  0  0  0  0  0  0  0
   12.4042   -4.9625    0.0000 C   0  0  0  0  0  0  0  0  0  0  0  0
   12.4167   -5.7875    0.0000 C   0  0  0  0  0  0  0  0  0  0  0  0
   -1.8583   -5.8625    0.0000 C   0  0  0  0  0  0  0  0  0  0  0  0
  2  3  1  0  0  0  0
  3  6  2  0  0  0  0
  4  1  2  0  0  0  0
  5  4  1  0  0  0  0
  6  7  1  0  0  0  0
  7 19  1  0  0  0  0
  8  5  1  0  0  0  0
  9  4  1  0  0  0  0
 10  3  1  0  0  0  0
 11  1  1  0  0  0  0
 12  2  2  0  0  0  0
 13 10  1  0  0  0  0
 14 16  1  0  0  0  0
 15 13  2  0  0  0  0
 16 11  1  0  0  0  0
 17  7  2  0  0  0  0
 18  8  2  0  0  0  0
 19 30  1  0  0  0  0
 20  8  1  0  0  0  0
 21  5  2  0  0  0  0
 22  6  1  0  0  0  0
 23 33  1  0  0  0  0
 24 32  1  0  0  0  0
 25 31  1  0  0  0  0
 26 28  1  0  0  0  0
 27  9  1  0  0  0  0
 28 22  2  0  0  0  0
 29 27  2  0  0  0  0
 30 24  1  0  0  0  0
 31 20  1  0  0  0  0
 32 23  1  0  0  0  0
 33 25  1  0  0  0  0
 34 12  1  0  0  0  0
 35 11  2  0  0  0  0
 36 16  2  0  0  0  0
 37 15  1  0  0  0  0
 38 23  1  0  0  0  0
 39 42  2  0  0  0  0
 40 37  2  0  0  0  0
 41 34  2  0  0  0  0
 42 35  1  0  0  0  0
  9 14  2  0  0  0  0
 39 36  1  0  0  0  0
 21 29  1  0  0  0  0
 10 26  2  0  0  0  0
 12 15  1  0  0  0  0
 41 40  1  0  0  0  0
M  END
>  <Mol Weight>
555.6688

>  <Formula>
C35H33N5O2

>  <chembl_id>
CHEMBL9402

$$$$

  Mrv0541 06201412482D          

 37 39  0  0  0  0            999 V2000
    8.9792   -3.9542    0.0000 P   0  0  0  0  0  0  0  0  0  0  0  0
    7.8875   -2.9750    0.0000 N   0  0  0  0  0  0  0  0  0  0  0  0
    8.6792   -3.1875    0.0000 C   0  0  0  0  0  0  0  0  0  0  0  0
    7.2542   -3.5042    0.0000 C   0  0  0  0  0  0  0  0  0  0  0  0
    9.5625   -3.3667    0.0000 O   0  0  0  0  0  0  0  0  0  0  0  0
    9.6917   -4.3667    0.0000 O   0  0  0  0  0  0  0  0  0  0  0  0
    5.7917   -3.6917    0.0000 N   0  0  0  0  0  0  0  0  0  0  0  0
    8.0875   -3.9667    0.0000 O   0  0  0  0  0  0  0  0  0  0  0  0
    6.4792   -3.2292    0.0000 C   0  0  0  0  0  0  0  0  0  0  0  0
   10.8667   -0.0167    0.0000 C   0  0  0  0  0  0  0  0  0  0  0  0
   13.2000   -4.4042    0.0000 C   0  0  0  0  0  0  0  0  0  0  0  0
   12.4042   -4.1917    0.0000 N   0  0  0  0  0  0  0  0  0  0  0  0
   10.2875   -0.6042    0.0000 N   0  0  0  0  0  0  0  0  0  0  0  0
    7.4000   -4.3167    0.0000 O   0  0  0  0  0  0  0  0  0  0  0  0
   10.1417   -2.7792    0.0000 C   0  0  0  0  0  0  0  0  0  0  0  0
   10.4042   -4.7792    0.0000 C   0  0  0  0  0  0  0  0  0  0  0  0
    9.9250   -1.9875    0.0000 C   0  0  0  0  0  0  0  0  0  0  0  0
   11.1125   -4.3667    0.0000 C   0  0  0  0  0  0  0  0  0  0  0  0
   11.8167   -4.7792    0.0000 C   0  0  0  0  0  0  0  0  0  0  0  0
   10.5042   -1.4000    0.0000 C   0  0  0  0  0  0  0  0  0  0  0  0
    5.1167   -5.4042    0.0000 Cl  0  0  0  0  0  0  0  0  0  0  0  0
   11.6917   -0.0167    0.0000 O   0  0  0  0  0  0  0  0  0  0  0  0
   13.4125   -5.2000    0.0000 O   0  0  0  0  0  0  0  0  0  0  0  0
    7.8417   -2.1500    0.0000 C   0  0  0  0  0  0  0  0  0  0  0  0
    9.1292   -2.4917    0.0000 C   0  0  0  0  0  0  0  0  0  0  0  0
    5.1417   -3.1917    0.0000 C   0  0  0  0  0  0  0  0  0  0  0  0
    8.6125   -1.8542    0.0000 C   0  0  0  0  0  0  0  0  0  0  0  0
   11.5292   -2.4042    0.0000 C   0  0  0  0  0  0  0  0  0  0  0  0
   11.1042   -6.0167    0.0000 C   0  0  0  0  0  0  0  0  0  0  0  0
   10.6417    0.7833    0.0000 C   0  0  0  0  0  0  0  0  0  0  0  0
   13.7792   -3.8167    0.0000 C   0  0  0  0  0  0  0  0  0  0  0  0
   10.3917   -5.6042    0.0000 C   0  0  0  0  0  0  0  0  0  0  0  0
   10.9417   -2.9917    0.0000 C   0  0  0  0  0  0  0  0  0  0  0  0
   11.3125   -1.6042    0.0000 C   0  0  0  0  0  0  0  0  0  0  0  0
   11.8250   -5.6042    0.0000 C   0  0  0  0  0  0  0  0  0  0  0  0
    6.2417   -2.4417    0.0000 C   0  0  0  0  0  0  0  0  0  0  0  0
    5.4250   -2.4167    0.0000 C   0  0  0  0  0  0  0  0  0  0  0  0
  2  3  1  0  0  0  0
  3  1  1  0  0  0  0
  4  2  1  0  0  0  0
  5  1  1  0  0  0  0
  6  1  1  0  0  0  0
  7  9  1  0  0  0  0
  8  1  2  0  0  0  0
  9  4  1  0  0  0  0
 10 13  1  0  0  0  0
 11 12  1  0  0  0  0
 12 19  1  0  0  0  0
 13 20  1  0  0  0  0
 14  4  2  0  0  0  0
 15  5  1  0  0  0  0
 16  6  1  0  0  0  0
 17 15  1  0  0  0  0
 18 16  1  0  0  0  0
 19 18  2  0  0  0  0
 20 17  2  0  0  0  0
 22 10  2  0  0  0  0
 23 11  2  0  0  0  0
 24  2  1  0  0  0  0
 25  3  1  0  0  0  0
 26  7  1  0  0  0  0
 27 25  1  0  0  0  0
 28 33  1  0  0  0  0
 29 32  1  0  0  0  0
 30 10  1  0  0  0  0
 31 11  1  0  0  0  0
 32 16  2  0  0  0  0
 33 15  2  0  0  0  0
 34 28  2  0  0  0  0
 35 29  2  0  0  0  0
 36  9  1  0  0  0  0
 37 36  1  0  0  0  0
 27 24  1  0  0  0  0
 19 35  1  0  0  0  0
 34 20  1  0  0  0  0
 26 37  1  0  0  0  0
M  END
>  <Mol Weight>
550.972

>  <Formula>
C25H32ClN4O6P

>  <chembl_id>
CHEMBL9263

$$$$

  Mrv0541 06201412482D          

 41 44  0  0  0  0            999 V2000
   10.7040   -2.8487    0.0000 N   0  0  0  0  0  0  0  0  0  0  0  0
   10.0018   -2.4377    0.0000 C   0  0  0  0  0  0  0  0  0  0  0  0
   10.0018   -1.6156    0.0000 N   0  0  0  0  0  0  0  0  0  0  0  0
   10.5556   -4.6070    0.0000 C   0  0  0  0  0  0  0  0  0  0  0  0
   11.4119   -2.4377    0.0000 C   0  0  0  0  0  0  0  0  0  0  0  0
   11.4119   -1.6156    0.0000 C   0  0  0  0  0  0  0  0  0  0  0  0
    7.2616   -3.7849    0.0000 P   0  0  0  0  0  0  0  0  0  0  0  0
   10.7040   -1.2046    0.0000 C   0  0  0  0  0  0  0  0  0  0  0  0
    9.6250   -4.1846    0.0000 O   0  0  0  0  0  0  0  0  0  0  0  0
   10.1559   -5.3149    0.0000 C   0  0  0  0  0  0  0  0  0  0  0  0
    7.2787   -5.5547    0.0000 C   0  0  0  0  0  0  0  0  0  0  0  0
    9.3396   -6.7478    0.0000 N   0  3  0  0  0  0  0  0  0  0  0  0
    7.2616   -4.6070    0.0000 N   0  0  0  0  0  0  0  0  0  0  0  0
    8.9115   -4.6070    0.0000 C   0  0  0  0  0  0  0  0  0  0  0  0
    9.3339   -5.3149    0.0000 C   0  0  0  0  0  0  0  0  0  0  0  0
    9.7507   -7.4557    0.0000 N   0  5  0  0  0  0  0  0  0  0  0  0
    6.4566   -6.0514    0.0000 C   0  0  0  0  0  0  0  0  0  0  0  0
    8.9286   -6.0342    0.0000 N   0  0  0  0  0  0  0  0  0  0  0  0
    8.9057   -3.7849    0.0000 C   0  0  0  0  0  0  0  0  0  0  0  0
    8.0836   -3.7849    0.0000 O   0  0  0  0  0  0  0  0  0  0  0  0
    9.2882   -2.8487    0.0000 O   0  0  0  0  0  0  0  0  0  0  0  0
    6.4395   -3.7849    0.0000 O   0  0  0  0  0  0  0  0  0  0  0  0
    7.2616   -2.9629    0.0000 O   0  0  0  0  0  0  0  0  0  0  0  0
    8.1065   -6.0171    0.0000 C   0  0  0  0  0  0  0  0  0  0  0  0
   10.7040   -0.3825    0.0000 O   0  0  0  0  0  0  0  0  0  0  0  0
    6.4795   -6.8677    0.0000 O   0  0  0  0  0  0  0  0  0  0  0  0
    5.7260   -5.6575    0.0000 O   0  0  0  0  0  0  0  0  0  0  0  0
   12.1312   -1.2046    0.0000 C   0  0  0  0  0  0  0  0  0  0  0  0
    5.6061   -3.7849    0.0000 C   0  0  0  0  0  0  0  0  0  0  0  0
    8.1236   -6.9704    0.0000 C   0  0  0  0  0  0  0  0  0  0  0  0
    5.0351   -6.0856    0.0000 C   0  0  0  0  0  0  0  0  0  0  0  0
    7.3130   -7.4557    0.0000 C   0  0  0  0  0  0  0  0  0  0  0  0
    8.9628   -7.4215    0.0000 C   0  0  0  0  0  0  0  0  0  0  0  0
    5.1950   -4.4929    0.0000 C   0  0  0  0  0  0  0  0  0  0  0  0
    5.1950   -3.0656    0.0000 C   0  0  0  0  0  0  0  0  0  0  0  0
    4.3730   -3.0656    0.0000 C   0  0  0  0  0  0  0  0  0  0  0  0
    7.3301   -8.4090    0.0000 C   0  0  0  0  0  0  0  0  0  0  0  0
    8.9800   -8.3805    0.0000 C   0  0  0  0  0  0  0  0  0  0  0  0
    4.3843   -4.4929    0.0000 C   0  0  0  0  0  0  0  0  0  0  0  0
    3.9619   -3.7736    0.0000 C   0  0  0  0  0  0  0  0  0  0  0  0
    8.1579   -8.8772    0.0000 C   0  0  0  0  0  0  0  0  0  0  0  0
  2  1  1  0  0  0  0
  3  2  1  0  0  0  0
  4  1  1  0  0  0  0
  5  1  1  0  0  0  0
  6  5  2  0  0  0  0
  7 20  1  0  0  0  0
  8  6  1  0  0  0  0
  9  4  1  0  0  0  0
 10  4  1  0  0  0  0
 11 13  1  0  0  0  0
 12 18  2  0  0  0  0
 13  7  1  0  0  0  0
 14  9  1  0  0  0  0
 15 10  1  0  0  0  0
 16 12  2  0  0  0  0
 17 11  1  0  0  0  0
 18 15  1  0  0  0  0
 19 14  1  0  0  0  0
 20 19  1  0  0  0  0
 21  2  2  0  0  0  0
 22  7  1  0  0  0  0
 23  7  2  0  0  0  0
 24 11  1  0  0  0  0
 25  8  2  0  0  0  0
 26 17  2  0  0  0  0
 27 17  1  0  0  0  0
 28  6  1  0  0  0  0
 29 22  1  0  0  0  0
 30 24  1  0  0  0  0
 31 27  1  0  0  0  0
 32 30  2  0  0  0  0
 33 30  1  0  0  0  0
 34 29  1  0  0  0  0
 35 29  2  0  0  0  0
 36 35  1  0  0  0  0
 37 32  1  0  0  0  0
 38 33  2  0  0  0  0
 39 34  2  0  0  0  0
 40 36  2  0  0  0  0
 41 38  1  0  0  0  0
  3  8  1  0  0  0  0
 14 15  1  0  0  0  0
 39 40  1  0  0  0  0
 37 41  2  0  0  0  0
M  CHG  2  12   1  16  -1
M  END
>  <Mol Weight>
584.5176

>  <Formula>
C26H29N6O8P

>  <chembl_id>
CHEMBL9526

$$$$

  Mrv0541 06201412482D          

 42 44  0  0  0  0            999 V2000
    3.5221   -7.7594    0.0000 C   0  0  1  0  0  0  0  0  0  0  0  0
    2.2017   -7.8320    0.0000 C   0  0  1  0  0  0  0  0  0  0  0  0
    2.8888   -8.2738    0.0000 C   0  0  1  0  0  0  0  0  0  0  0  0
    3.2238   -6.9994    0.0000 O   0  0  0  0  0  0  0  0  0  0  0  0
    2.4097   -7.0470    0.0000 C   0  0  2  0  0  0  0  0  0  0  0  0
    1.8944   -6.4152    0.0000 C   0  0  0  0  0  0  0  0  0  0  0  0
    7.7362   -7.6827    0.0000 C   0  0  0  0  0  0  0  0  0  0  0  0
    8.4497   -8.0971    0.0000 C   0  0  2  0  0  0  0  0  0  0  0  0
    7.7366   -6.8582    0.0000 O   0  0  0  0  0  0  0  0  0  0  0  0
    9.1681   -7.6833    0.0000 C   0  0  0  0  0  0  0  0  0  0  0  0
    9.8814   -8.0977    0.0000 C   0  0  0  0  0  0  0  0  0  0  0  0
    5.5902   -6.4327    0.0000 C   0  0  2  0  0  0  0  0  0  0  0  0
    4.8772   -6.8426    0.0000 C   0  0  2  0  0  0  0  0  0  0  0  0
    4.8776   -7.6684    0.0000 C   0  0  1  0  0  0  0  0  0  0  0  0
    5.5848   -8.0826    0.0000 C   0  0  2  0  0  0  0  0  0  0  0  0
    6.3022   -7.6769    0.0000 C   0  0  1  0  0  0  0  0  0  0  0  0
    6.3109   -6.8471    0.0000 C   0  0  0  0  0  0  0  0  0  0  0  0
    4.1603   -8.0783    0.0000 O   0  0  0  0  0  0  0  0  0  0  0  0
    4.1630   -6.4294    0.0000 O   0  0  0  0  0  0  0  0  0  0  0  0
    4.1622   -5.5997    0.0000 C   0  0  1  0  0  0  0  0  0  0  0  0
    4.8862   -5.1913    0.0000 O   0  0  0  0  0  0  0  0  0  0  0  0
    4.8899   -4.3654    0.0000 C   0  0  1  0  0  0  0  0  0  0  0  0
    4.1745   -3.9448    0.0000 C   0  0  2  0  0  0  0  0  0  0  0  0
    3.4546   -4.3542    0.0000 C   0  0  1  0  0  0  0  0  0  0  0  0
    3.4471   -5.1899    0.0000 C   0  0  1  0  0  0  0  0  0  0  0  0
    5.6121   -3.9539    0.0000 C   0  0  2  0  0  0  0  0  0  0  0  0
    4.8859   -6.0061    0.0000 H   0  0  0  0  0  0  0  0  0  0  0  0
    5.6143   -3.1296    0.0000 C   0  0  0  0  0  0  0  0  0  0  0  0
    5.6541   -4.6784    0.0000 H   0  0  0  0  0  0  0  0  0  0  0  0
    8.4494   -8.9214    0.0000 O   0  0  0  0  0  0  0  0  0  0  0  0
   10.5915   -7.6839    0.0000 N   0  0  0  0  0  0  0  0  0  0  0  0
    7.0153   -8.0945    0.0000 N   0  0  0  0  0  0  0  0  0  0  0  0
    5.5802   -8.9164    0.0000 O   0  0  0  0  0  0  0  0  0  0  0  0
    5.5922   -5.6058    0.0000 N   0  0  0  0  0  0  0  0  0  0  0  0
    2.7322   -5.5996    0.0000 N   0  0  0  0  0  0  0  0  0  0  0  0
    2.7381   -3.9408    0.0000 O   0  0  0  0  0  0  0  0  0  0  0  0
    4.1807   -3.1191    0.0000 O   0  0  0  0  0  0  0  0  0  0  0  0
    6.3229   -4.3690    0.0000 O   0  0  0  0  0  0  0  0  0  0  0  0
    4.0888   -7.1838    0.0000 H   0  0  0  0  0  0  0  0  0  0  0  0
    2.9340   -9.0870    0.0000 O   0  0  0  0  0  0  0  0  0  0  0  0
    1.5034   -8.1059    0.0000 O   0  0  0  0  0  0  0  0  0  0  0  0
    2.1792   -5.6566    0.0000 N   0  0  0  0  0  0  0  0  0  0  0  0
  1  3  1  0  0  0  0
  1  4  1  0  0  0  0
  4  5  1  0  0  0  0
  5  2  1  0  0  0  0
  5  6  1  1  0  0  0
 16 17  1  0  0  0  0
 14 18  1  1  0  0  0
 13 19  1  6  0  0  0
 19 20  1  0  0  0  0
 20 21  1  0  0  0  0
 20 25  1  0  0  0  0
 21 22  1  0  0  0  0
 22 23  1  0  0  0  0
 23 24  1  0  0  0  0
 24 25  1  0  0  0  0
 22 26  1  0  0  0  0
 20 27  1  1  0  0  0
 26 28  1  6  0  0  0
 22 29  1  6  0  0  0
  7  8  1  0  0  0  0
  7  9  2  0  0  0  0
  8 10  1  0  0  0  0
 10 11  1  0  0  0  0
 12 13  1  0  0  0  0
 12 17  1  0  0  0  0
 13 14  1  0  0  0  0
 14 15  1  0  0  0  0
 15 16  1  0  0  0  0
 25 35  1  6  0  0  0
 16 32  1  1  0  0  0
 32  7  1  0  0  0  0
 24 36  1  1  0  0  0
 23 37  1  6  0  0  0
 15 33  1  6  0  0  0
 26 38  1  0  0  0  0
 11 31  1  0  0  0  0
 12 34  1  1  0  0  0
  8 30  1  6  0  0  0
 18  1  1  0  0  0  0
  1 39  1  6  0  0  0
  2  3  1  0  0  0  0
  3 40  1  6  0  0  0
  2 41  1  6  0  0  0
  6 42  1  0  0  0  0
M  END
>  <Mol Weight>
569.6031

>  <Formula>
C22H43N5O12

>  <chembl_id>
CHEMBL1163270

$$$$

  Mrv0541 06201412482D          

 37 39  0  0  1  0            999 V2000
    6.0375   -3.7792    0.0000 C   0  0  0  0  0  0  0  0  0  0  0  0
    6.8417   -3.9875    0.0000 C   0  0  0  0  0  0  0  0  0  0  0  0
    6.2250   -2.9875    0.0000 C   0  0  0  0  0  0  0  0  0  0  0  0
    7.0375   -3.1875    0.0000 C   0  0  0  0  0  0  0  0  0  0  0  0
    1.7500   -0.4917    0.0000 C   0  0  0  0  0  0  0  0  0  0  0  0
    5.3250   -4.1875    0.0000 N   0  0  0  0  0  0  0  0  0  0  0  0
    1.0292   -0.0792    0.0000 C   0  0  0  0  0  0  0  0  0  0  0  0
    4.6042   -3.7875    0.0000 C   0  0  2  0  0  0  0  0  0  0  0  0
    9.7750   -6.0667    0.0000 C   0  0  0  0  0  0  0  0  0  0  0  0
    1.7500   -1.3167    0.0000 N   0  0  0  0  0  0  0  0  0  0  0  0
    3.8917   -4.1917    0.0000 C   0  0  0  0  0  0  0  0  0  0  0  0
    5.8000   -2.2875    0.0000 O   0  0  0  0  0  0  0  0  0  0  0  0
    7.7375   -2.7542    0.0000 O   0  0  0  0  0  0  0  0  0  0  0  0
    2.4625   -0.0750    0.0000 O   0  0  0  0  0  0  0  0  0  0  0  0
   -0.4000    0.7458    0.0000 N   0  0  0  0  0  0  0  0  0  0  0  0
    1.0292    0.7500    0.0000 C   0  0  0  0  0  0  0  0  0  0  0  0
    0.3125   -0.4917    0.0000 C   0  0  0  0  0  0  0  0  0  0  0  0
    7.2750   -4.6875    0.0000 N   0  0  0  0  0  0  0  0  0  0  0  0
    4.6042   -2.9625    0.0000 C   0  0  0  0  0  0  0  0  0  0  0  0
    3.1792   -3.7875    0.0000 O   0  0  0  0  0  0  0  0  0  0  0  0
    2.4625   -1.7250    0.0000 C   0  0  0  0  0  0  0  0  0  0  0  0
   10.1667   -6.7125    0.0000 F   0  0  0  0  0  0  0  0  0  0  0  0
    9.4875   -6.8875    0.0000 F   0  0  0  0  0  0  0  0  0  0  0  0
   10.6375   -6.1917    0.0000 F   0  0  0  0  0  0  0  0  0  0  0  0
    3.8875   -2.5500    0.0000 C   0  0  0  0  0  0  0  0  0  0  0  0
    3.9000   -5.0250    0.0000 O   0  0  0  0  0  0  0  0  0  0  0  0
    1.7417    1.1625    0.0000 Cl  0  0  0  0  0  0  0  0  0  0  0  0
    0.3125   -1.3167    0.0000 Cl  0  0  0  0  0  0  0  0  0  0  0  0
   -0.4000   -0.0792    0.0000 C   0  0  0  0  0  0  0  0  0  0  0  0
    0.3125    1.1625    0.0000 C   0  0  0  0  0  0  0  0  0  0  0  0
    3.1750   -1.3125    0.0000 C   0  0  0  0  0  0  0  0  0  0  0  0
    2.4625   -2.5500    0.0000 C   0  0  0  0  0  0  0  0  0  0  0  0
    3.1750   -2.9625    0.0000 C   0  0  0  0  0  0  0  0  0  0  0  0
    3.8875   -1.7167    0.0000 C   0  0  0  0  0  0  0  0  0  0  0  0
    9.3500   -5.3625    0.0000 C   0  0  0  0  0  0  0  0  0  0  0  0
    8.1000   -4.6750    0.0000 C   0  0  0  0  0  0  0  0  0  0  0  0
    8.5250   -5.3792    0.0000 C   0  0  0  0  0  0  0  0  0  0  0  0
  2  1  1  0  0  0  0
  3  1  1  0  0  0  0
  4  3  2  0  0  0  0
  5 10  1  0  0  0  0
  6  1  2  0  0  0  0
  7  5  1  0  0  0  0
  8  6  1  0  0  0  0
  9 35  1  0  0  0  0
 10 21  1  0  0  0  0
 11  8  1  0  0  0  0
 12  3  1  0  0  0  0
 13  4  1  0  0  0  0
 14  5  2  0  0  0  0
 15 29  2  0  0  0  0
 16  7  1  0  0  0  0
 17  7  2  0  0  0  0
 18  2  2  0  0  0  0
  8 19  1  6  0  0  0
 20 11  2  0  0  0  0
 21 31  2  0  0  0  0
 22  9  1  0  0  0  0
 23  9  1  0  0  0  0
 24  9  1  0  0  0  0
 25 19  1  0  0  0  0
 26 11  1  0  0  0  0
 27 16  1  0  0  0  0
 28 17  1  0  0  0  0
 29 17  1  0  0  0  0
 30 16  2  0  0  0  0
 31 34  1  0  0  0  0
 32 33  2  0  0  0  0
 33 25  1  0  0  0  0
 34 25  2  0  0  0  0
 35 37  1  0  0  0  0
 36 18  1  0  0  0  0
 37 36  1  0  0  0  0
  2  4  1  0  0  0  0
 21 32  1  0  0  0  0
 30 15  1  0  0  0  0
M  END
>  <Mol Weight>
559.322

>  <Formula>
C23H19Cl2F3N4O5

>  <chembl_id>
CHEMBL9349

$$$$

  Mrv0541 06201412482D          

 41 44  0  0  0  0            999 V2000
    2.2230   -3.7011    0.0000 C   0  0  0  0  0  0  0  0  0  0  0  0
    2.2230   -2.8761    0.0000 C   0  0  0  0  0  0  0  0  0  0  0  0
    1.5011   -4.1136    0.0000 N   0  0  0  0  0  0  0  0  0  0  0  0
    0.7964   -2.8761    0.0000 N   0  0  0  0  0  0  0  0  0  0  0  0
    0.7964   -3.7011    0.0000 C   0  0  0  0  0  0  0  0  0  0  0  0
    3.0078   -3.9531    0.0000 N   0  0  0  0  0  0  0  0  0  0  0  0
    1.5011   -2.4636    0.0000 C   0  0  0  0  0  0  0  0  0  0  0  0
    2.9964   -2.6183    0.0000 N   0  0  0  0  0  0  0  0  0  0  0  0
    3.4891   -3.2886    0.0000 C   0  0  0  0  0  0  0  0  0  0  0  0
   11.3094   -5.4141    0.0000 C   0  0  0  0  0  0  0  0  0  0  0  0
    4.3141   -3.2828    0.0000 C   0  0  0  0  0  0  0  0  0  0  0  0
    0.0859   -4.1078    0.0000 O   0  0  0  0  0  0  0  0  0  0  0  0
    1.5011   -1.6386    0.0000 O   0  0  0  0  0  0  0  0  0  0  0  0
   12.1344   -5.4141    0.0000 N   0  0  0  0  0  0  0  0  0  0  0  0
    8.0151   -3.9875    0.0000 C   0  0  0  0  0  0  0  0  0  0  0  0
   11.2980   -4.5891    0.0000 S   0  0  0  0  0  0  0  0  0  0  0  0
    1.5011   -4.9386    0.0000 C   0  0  0  0  0  0  0  0  0  0  0  0
    8.4276   -3.2714    0.0000 O   0  0  0  0  0  0  0  0  0  0  0  0
    0.0859   -2.4636    0.0000 C   0  0  0  0  0  0  0  0  0  0  0  0
   10.4844   -5.4198    0.0000 N   0  0  0  0  0  0  0  0  0  0  0  0
    4.7151   -3.9933    0.0000 C   0  0  0  0  0  0  0  0  0  0  0  0
    4.7151   -2.5667    0.0000 C   0  0  0  0  0  0  0  0  0  0  0  0
    8.4276   -4.6922    0.0000 N   0  0  0  0  0  0  0  0  0  0  0  0
   12.9594   -5.4141    0.0000 C   0  0  0  0  0  0  0  0  0  0  0  0
    6.7776   -3.2714    0.0000 O   0  0  0  0  0  0  0  0  0  0  0  0
    7.1901   -3.9933    0.0000 C   0  0  0  0  0  0  0  0  0  0  0  0
    5.9526   -3.2828    0.0000 C   0  0  0  0  0  0  0  0  0  0  0  0
   14.5980   -5.4198    0.0000 C   0  0  0  0  0  0  0  0  0  0  0  0
    5.5401   -3.9933    0.0000 C   0  0  0  0  0  0  0  0  0  0  0  0
    5.5401   -2.5667    0.0000 C   0  0  0  0  0  0  0  0  0  0  0  0
   15.4230   -5.4198    0.0000 F   0  0  0  0  0  0  0  0  0  0  0  0
   13.3605   -4.6980    0.0000 C   0  0  0  0  0  0  0  0  0  0  0  0
   13.3605   -6.1359    0.0000 C   0  0  0  0  0  0  0  0  0  0  0  0
   14.1855   -6.1359    0.0000 C   0  0  0  0  0  0  0  0  0  0  0  0
   14.1855   -4.6980    0.0000 C   0  0  0  0  0  0  0  0  0  0  0  0
    9.6594   -5.4141    0.0000 C   0  0  0  0  0  0  0  0  0  0  0  0
    9.2526   -4.6980    0.0000 C   0  0  0  0  0  0  0  0  0  0  0  0
   -0.6302   -2.8761    0.0000 C   0  0  0  0  0  0  0  0  0  0  0  0
    0.7964   -5.3511    0.0000 C   0  0  0  0  0  0  0  0  0  0  0  0
   -1.3520   -2.4636    0.0000 C   0  0  0  0  0  0  0  0  0  0  0  0
    0.7964   -6.1761    0.0000 C   0  0  0  0  0  0  0  0  0  0  0  0
  2  1  2  0  0  0  0
  3  1  1  0  0  0  0
  4  5  1  0  0  0  0
  5  3  1  0  0  0  0
  6  1  1  0  0  0  0
  7  2  1  0  0  0  0
  8  2  1  0  0  0  0
  9  6  1  0  0  0  0
 10 20  2  3  0  0  0
 11  9  1  0  0  0  0
 12  5  2  0  0  0  0
 13  7  2  0  0  0  0
 14 10  1  0  0  0  0
 15 26  1  0  0  0  0
 16 10  1  0  0  0  0
 17  3  1  0  0  0  0
 18 15  2  0  0  0  0
 19  4  1  0  0  0  0
 20 36  1  0  0  0  0
 21 11  2  0  0  0  0
 22 11  1  0  0  0  0
 23 15  1  0  0  0  0
 24 14  1  0  0  0  0
 25 27  1  0  0  0  0
 26 25  1  0  0  0  0
 27 30  1  0  0  0  0
 28 34  1  0  0  0  0
 29 21  1  0  0  0  0
 30 22  2  0  0  0  0
 31 28  1  0  0  0  0
 32 24  2  0  0  0  0
 33 24  1  0  0  0  0
 34 33  2  0  0  0  0
 35 32  1  0  0  0  0
 36 37  1  0  0  0  0
 37 23  1  0  0  0  0
 38 19  1  0  0  0  0
 39 17  1  0  0  0  0
 40 38  1  0  0  0  0
 41 39  1  0  0  0  0
  9  8  2  0  0  0  0
  4  7  1  0  0  0  0
 29 27  2  0  0  0  0
 35 28  2  0  0  0  0
M  END
>  <Mol Weight>
581.662

>  <Formula>
C28H32FN7O4S

>  <chembl_id>
CHEMBL9289

$$$$

  Mrv0541 06201412482D          

 44 49  0  0  0  0            999 V2000
    6.5712   -5.5514    0.0000 C   0  0  0  0  0  0  0  0  0  0  0  0
    5.7577   -5.5572    0.0000 C   0  0  0  0  0  0  0  0  0  0  0  0
    6.8233   -6.3306    0.0000 C   0  0  0  0  0  0  0  0  0  0  0  0
    5.5056   -6.3478    0.0000 C   0  0  0  0  0  0  0  0  0  0  0  0
    5.4885   -4.7780    0.0000 C   0  0  0  0  0  0  0  0  0  0  0  0
    6.8119   -4.7608    0.0000 C   0  0  0  0  0  0  0  0  0  0  0  0
    6.8119   -7.6712    0.0000 N   0  0  0  0  0  0  0  0  0  0  0  0
    6.1530   -4.2854    0.0000 N   0  0  0  0  0  0  0  0  0  0  0  0
    6.3306   -7.0009    0.0000 C   0  0  0  0  0  0  0  0  0  0  0  0
    8.5764  -11.1258    0.0000 C   0  0  0  0  0  0  0  0  0  0  0  0
    7.9634  -11.6872    0.0000 N   0  0  0  0  0  0  0  0  0  0  0  0
    7.6025   -6.5884    0.0000 C   0  0  0  0  0  0  0  0  0  0  0  0
    5.9983   -7.0295    0.0000 C   0  0  0  0  0  0  0  0  0  0  0  0
    8.2384  -10.3810    0.0000 C   0  0  0  0  0  0  0  0  0  0  0  0
    7.4134  -10.4669    0.0000 C   0  0  0  0  0  0  0  0  0  0  0  0
    7.5967   -7.4134    0.0000 C   0  0  0  0  0  0  0  0  0  0  0  0
    7.2415  -11.2747    0.0000 C   0  0  0  0  0  0  0  0  0  0  0  0
    4.7322   -6.6056    0.0000 C   0  0  0  0  0  0  0  0  0  0  0  0
    5.5228   -7.6884    0.0000 N   0  0  0  0  0  0  0  0  0  0  0  0
    9.3841  -11.2977    0.0000 C   0  0  0  0  0  0  0  0  0  0  0  0
    7.1155   -9.0634    0.0000 C   0  0  0  0  0  0  0  0  0  0  0  0
    6.5541   -8.4560    0.0000 C   0  0  0  0  0  0  0  0  0  0  0  0
    6.8634   -9.8540    0.0000 N   0  0  0  0  0  0  0  0  0  0  0  0
    4.7322   -7.4306    0.0000 C   0  0  0  0  0  0  0  0  0  0  0  0
    4.6978   -4.5260    0.0000 O   0  0  0  0  0  0  0  0  0  0  0  0
    7.6025   -4.5030    0.0000 O   0  0  0  0  0  0  0  0  0  0  0  0
    9.6420  -12.0883    0.0000 O   0  0  0  0  0  0  0  0  0  0  0  0
    7.9232   -8.8915    0.0000 O   0  0  0  0  0  0  0  0  0  0  0  0
    9.9341  -10.6904    0.0000 N   0  0  0  0  0  0  0  0  0  0  0  0
    8.0493  -12.5008    0.0000 C   0  0  0  0  0  0  0  0  0  0  0  0
   12.7528  -10.0029    0.0000 N   0  0  0  0  0  0  0  0  0  0  0  0
    8.3071   -6.1759    0.0000 C   0  0  0  0  0  0  0  0  0  0  0  0
    8.3185   -7.8201    0.0000 C   0  0  0  0  0  0  0  0  0  0  0  0
   11.3492  -10.3008    0.0000 C   0  0  0  0  0  0  0  0  0  0  0  0
    4.0218   -6.1931    0.0000 C   0  0  0  0  0  0  0  0  0  0  0  0
   10.7419  -10.8508    0.0000 C   0  0  0  0  0  0  0  0  0  0  0  0
   12.1399  -10.5529    0.0000 C   0  0  0  0  0  0  0  0  0  0  0  0
    4.0276   -7.8431    0.0000 C   0  0  0  0  0  0  0  0  0  0  0  0
   13.5320  -10.2493    0.0000 C   0  0  0  0  0  0  0  0  0  0  0  0
   12.5695   -9.1951    0.0000 C   0  0  0  0  0  0  0  0  0  0  0  0
    9.0232   -6.5884    0.0000 C   0  0  0  0  0  0  0  0  0  0  0  0
    3.3057   -6.6056    0.0000 C   0  0  0  0  0  0  0  0  0  0  0  0
    9.0232   -7.3962    0.0000 C   0  0  0  0  0  0  0  0  0  0  0  0
    3.3057   -7.4306    0.0000 C   0  0  0  0  0  0  0  0  0  0  0  0
  2  1  2  0  0  0  0
  3  1  1  0  0  0  0
  4  2  1  0  0  0  0
  5  2  1  0  0  0  0
  6  1  1  0  0  0  0
  7  9  1  0  0  0  0
  8  6  1  0  0  0  0
  9  3  2  0  0  0  0
 10 14  2  0  0  0  0
 11 17  1  0  0  0  0
 12  3  1  0  0  0  0
 13  4  2  0  0  0  0
 14 15  1  0  0  0  0
 15 23  1  0  0  0  0
 16 12  1  0  0  0  0
 17 15  2  0  0  0  0
 18  4  1  0  0  0  0
 19 13  1  0  0  0  0
 20 10  1  0  0  0  0
 21 22  1  0  0  0  0
 22  7  1  0  0  0  0
 23 21  1  0  0  0  0
 24 18  2  0  0  0  0
 25  5  2  0  0  0  0
 26  6  2  0  0  0  0
 27 20  2  0  0  0  0
 28 21  2  0  0  0  0
 29 20  1  0  0  0  0
 30 11  1  0  0  0  0
 31 37  1  0  0  0  0
 32 12  2  0  0  0  0
 33 16  2  0  0  0  0
 34 36  1  0  0  0  0
 35 18  1  0  0  0  0
 36 29  1  0  0  0  0
 37 34  1  0  0  0  0
 38 24  1  0  0  0  0
 39 31  1  0  0  0  0
 40 31  1  0  0  0  0
 41 32  1  0  0  0  0
 42 35  2  0  0  0  0
 43 41  2  0  0  0  0
 44 42  1  0  0  0  0
  5  8  1  0  0  0  0
  7 16  1  0  0  0  0
 19 24  1  0  0  0  0
 33 43  1  0  0  0  0
 38 44  2  0  0  0  0
 10 11  1  0  0  0  0
M  END
>  <Mol Weight>
591.6596

>  <Formula>
C33H33N7O4

>  <chembl_id>
CHEMBL9333

$$$$

  Mrv0541 06201412482D          

 38 41  0  0  1  0            999 V2000
    3.6792  -10.8125    0.0000 S   0  0  0  0  0  0  0  0  0  0  0  0
    8.6792  -12.0375    0.0000 S   0  0  0  0  0  0  0  0  0  0  0  0
    5.1125  -10.8042    0.0000 C   0  0  2  0  0  0  0  0  0  0  0  0
    7.9667  -11.6250    0.0000 N   0  0  0  0  0  0  0  0  0  0  0  0
    4.3917  -10.4000    0.0000 N   0  0  0  0  0  0  0  0  0  0  0  0
    5.8250  -10.3917    0.0000 C   0  0  0  0  0  0  0  0  0  0  0  0
    6.5417  -10.8042    0.0000 N   0  0  0  0  0  0  0  0  0  0  0  0
    2.9667  -10.4042    0.0000 C   0  0  0  0  0  0  0  0  0  0  0  0
    7.9667  -10.8000    0.0000 C   0  0  0  0  0  0  0  0  0  0  0  0
    7.2542  -12.0375    0.0000 C   0  0  0  0  0  0  0  0  0  0  0  0
    4.3917  -11.2167    0.0000 O   0  0  0  0  0  0  0  0  0  0  0  0
    2.9625  -11.2167    0.0000 O   0  0  0  0  0  0  0  0  0  0  0  0
    2.2542  -10.8167    0.0000 C   0  0  0  0  0  0  0  0  0  0  0  0
    8.8917  -11.2375    0.0000 O   0  0  0  0  0  0  0  0  0  0  0  0
    9.4750  -12.2500    0.0000 O   0  0  0  0  0  0  0  0  0  0  0  0
    5.1167  -11.6292    0.0000 C   0  0  0  0  0  0  0  0  0  0  0  0
    7.2500  -10.3875    0.0000 C   0  0  0  0  0  0  0  0  0  0  0  0
    6.5417  -11.6292    0.0000 C   0  0  0  0  0  0  0  0  0  0  0  0
    2.7625  -13.9542    0.0000 C   0  0  0  0  0  0  0  0  0  0  0  0
    1.5375  -10.4042    0.0000 C   0  0  0  0  0  0  0  0  0  0  0  0
    5.8167   -9.5667    0.0000 O   0  0  0  0  0  0  0  0  0  0  0  0
    3.3500  -13.3750    0.0000 C   0  0  0  0  0  0  0  0  0  0  0  0
    2.9625   -9.5750    0.0000 C   0  0  0  0  0  0  0  0  0  0  0  0
    1.5375   -9.5792    0.0000 C   0  0  0  0  0  0  0  0  0  0  0  0
    2.2417   -9.1667    0.0000 C   0  0  0  0  0  0  0  0  0  0  0  0
    2.9667  -14.7500    0.0000 N   0  0  0  0  0  0  0  0  0  0  0  0
    3.1417  -12.5667    0.0000 C   0  0  0  0  0  0  0  0  0  0  0  0
    4.1500  -13.5917    0.0000 C   0  0  0  0  0  0  0  0  0  0  0  0
    8.6792  -12.8625    0.0000 C   0  0  0  0  0  0  0  0  0  0  0  0
    4.5250  -12.2042    0.0000 C   0  0  0  0  0  0  0  0  0  0  0  0
    1.9667  -13.7375    0.0000 N   0  0  0  0  0  0  0  0  0  0  0  0
    2.3792  -15.3292    0.0000 N   0  0  0  0  0  0  0  0  0  0  0  0
    4.7375  -13.0042    0.0000 C   0  0  0  0  0  0  0  0  0  0  0  0
    3.7292  -11.9917    0.0000 C   0  0  0  0  0  0  0  0  0  0  0  0
    0.8167  -10.8250    0.0000 C   0  0  0  0  0  0  0  0  0  0  0  0
    0.8167   -9.1667    0.0000 C   0  0  0  0  0  0  0  0  0  0  0  0
    0.1042  -10.4125    0.0000 C   0  0  0  0  0  0  0  0  0  0  0  0
    0.1042   -9.5792    0.0000 C   0  0  0  0  0  0  0  0  0  0  0  0
  2  4  1  0  0  0  0
  3  5  1  0  0  0  0
  4 10  1  0  0  0  0
  5  1  1  0  0  0  0
  6  3  1  0  0  0  0
  7  6  1  0  0  0  0
  8  1  1  0  0  0  0
  9 17  1  0  0  0  0
 10 18  1  0  0  0  0
 11  1  2  0  0  0  0
 12  1  2  0  0  0  0
 13  8  2  0  0  0  0
 14  2  2  0  0  0  0
 15  2  2  0  0  0  0
  3 16  1  6  0  0  0
 17  7  1  0  0  0  0
 18  7  1  0  0  0  0
 19 22  1  0  0  0  0
 20 13  1  0  0  0  0
 21  6  2  0  0  0  0
 22 27  2  0  0  0  0
 23  8  1  0  0  0  0
 24 25  1  0  0  0  0
 25 23  2  0  0  0  0
 26 19  1  0  0  0  0
 27 34  1  0  0  0  0
 28 33  2  0  0  0  0
 29  2  1  0  0  0  0
 30 16  1  0  0  0  0
 31 19  1  0  0  0  0
 32 26  1  0  0  0  0
 33 30  1  0  0  0  0
 34 30  2  0  0  0  0
 35 20  2  0  0  0  0
 36 24  2  0  0  0  0
 37 35  1  0  0  0  0
 38 36  1  0  0  0  0
 20 24  1  0  0  0  0
 37 38  2  0  0  0  0
 22 28  1  0  0  0  0
  4  9  1  0  0  0  0
M  END
>  <Mol Weight>
560.689

>  <Formula>
C25H32N6O5S2

>  <chembl_id>
CHEMBL9461

$$$$

  Mrv0541 06201412482D          

 42 43  0  0  1  0            999 V2000
    6.6738   -6.1280    0.0000 C   0  0  2  0  0  0  0  0  0  0  0  0
    7.5124   -5.4890    0.0000 C   0  0  1  0  0  0  0  0  0  0  0  0
    4.7923   -5.5156    0.0000 C   0  0  2  0  0  0  0  0  0  0  0  0
    5.5156   -5.9416    0.0000 O   0  0  0  0  0  0  0  0  0  0  0  0
    8.4797   -5.9150    0.0000 C   0  0  2  0  0  0  0  0  0  0  0  0
    4.0779   -5.9283    0.0000 C   0  0  2  0  0  0  0  0  0  0  0  0
    2.6669   -6.7270    0.0000 C   0  0  0  0  0  0  0  0  0  0  0  0
    6.7891   -7.1796    0.0000 O   0  0  0  0  0  0  0  0  0  0  0  0
    1.9702   -7.1264    0.0000 O   0  0  0  0  0  0  0  0  0  0  0  0
    3.3812   -7.1264    0.0000 C   0  0  0  0  0  0  0  0  0  0  0  0
    4.0779   -6.7270    0.0000 C   0  0  0  0  0  0  0  0  0  0  0  0
    4.7923   -4.7169    0.0000 C   0  0  2  0  0  0  0  0  0  0  0  0
    1.9702   -5.5023    0.0000 C   0  0  0  0  0  0  0  0  0  0  0  0
    2.6669   -3.4656    0.0000 C   0  0  0  0  0  0  0  0  0  0  0  0
    3.3812   -3.0795    0.0000 C   0  0  0  0  0  0  0  0  0  0  0  0
    8.6040   -6.9666    0.0000 C   0  0  0  0  0  0  0  0  0  0  0  0
    1.9702   -4.6903    0.0000 C   0  0  0  0  0  0  0  0  0  0  0  0
    4.0779   -4.2776    0.0000 C   0  0  0  0  0  0  0  0  0  0  0  0
    1.2558   -6.7270    0.0000 C   0  0  1  0  0  0  0  0  0  0  0  0
    2.6669   -4.2776    0.0000 C   0  0  0  0  0  0  0  0  0  0  0  0
    1.2558   -5.8884    0.0000 C   0  0  1  0  0  0  0  0  0  0  0  0
    4.0779   -3.4656    0.0000 C   0  0  1  0  0  0  0  0  0  0  0  0
    9.4959   -5.6487    0.0000 N   0  0  0  0  0  0  0  0  0  0  0  0
    7.7520   -7.5923    0.0000 C   0  0  1  0  0  0  0  0  0  0  0  0
    2.6669   -5.9017    0.0000 O   0  0  0  0  0  0  0  0  0  0  0  0
    3.3812   -2.2409    0.0000 O   0  0  0  0  0  0  0  0  0  0  0  0
    7.5079   -4.4374    0.0000 O   0  0  0  0  0  0  0  0  0  0  0  0
    4.8101   -7.1530    0.0000 O   0  0  0  0  0  0  0  0  0  0  0  0
    6.2034   -3.0795    0.0000 N   0  0  0  0  0  0  0  0  0  0  0  0
    3.3812   -5.5156    0.0000 C   0  0  0  0  0  0  0  0  0  0  0  0
    5.5156   -4.2776    0.0000 C   0  0  0  0  0  0  0  0  0  0  0  0
    0.5192   -7.1264    0.0000 C   0  0  0  0  0  0  0  0  0  0  0  0
    1.2558   -4.2776    0.0000 C   0  0  0  0  0  0  0  0  0  0  0  0
   10.4099   -6.1679    0.0000 C   0  0  0  0  0  0  0  0  0  0  0  0
    9.7710   -4.6237    0.0000 C   0  0  0  0  0  0  0  0  0  0  0  0
    0.5192   -5.4890    0.0000 C   0  0  0  0  0  0  0  0  0  0  0  0
    4.7923   -3.0396    0.0000 C   0  0  0  0  0  0  0  0  0  0  0  0
    5.5156   -3.4789    0.0000 C   0  0  0  0  0  0  0  0  0  0  0  0
    7.7476   -8.6439    0.0000 C   0  0  0  0  0  0  0  0  0  0  0  0
    6.8868   -3.4789    0.0000 C   0  0  0  0  0  0  0  0  0  0  0  0
    0.4925   -7.9517    0.0000 C   0  0  0  0  0  0  0  0  0  0  0  0
    7.5745   -3.0795    0.0000 C   0  0  0  0  0  0  0  0  0  0  0  0
  2  1  1  0  0  0  0
  3  4  1  6  0  0  0
  1  4  1  1  0  0  0
  5  2  1  0  0  0  0
  6  3  1  0  0  0  0
  7 10  1  0  0  0  0
  8  1  1  0  0  0  0
  9  7  1  0  0  0  0
 10 11  1  0  0  0  0
 11  6  1  0  0  0  0
 12  3  1  0  0  0  0
 13 17  2  0  0  0  0
 14 15  1  0  0  0  0
 15 22  1  0  0  0  0
 16 24  1  0  0  0  0
 17 20  1  0  0  0  0
 18 12  1  0  0  0  0
 19  9  1  0  0  0  0
 20 14  2  0  0  0  0
 21 19  1  0  0  0  0
 22 18  1  0  0  0  0
  5 23  1  1  0  0  0
 24  8  1  0  0  0  0
 25  7  2  0  0  0  0
 26 15  2  0  0  0  0
  2 27  1  6  0  0  0
 28 11  1  0  0  0  0
 29 38  1  0  0  0  0
  6 30  1  6  0  0  0
 12 31  1  6  0  0  0
 19 32  1  6  0  0  0
 33 17  1  0  0  0  0
 34 23  1  0  0  0  0
 35 23  1  0  0  0  0
 21 36  1  1  0  0  0
 22 37  1  6  0  0  0
 38 31  1  0  0  0  0
 24 39  1  1  0  0  0
 40 29  1  0  0  0  0
 41 32  1  0  0  0  0
 42 40  1  0  0  0  0
  5 16  1  0  0  0  0
 21 13  1  0  0  0  0
M  END
>  <Mol Weight>
594.8228

>  <Formula>
C33H58N2O7

>  <chembl_id>
CHEMBL9177

$$$$

  Mrv0541 06201412482D          

 40 42  0  0  0  0            999 V2000
    2.6183   -2.7558    0.0000 C   0  0  0  0  0  0  0  0  0  0  0  0
    2.6183   -1.9422    0.0000 C   0  0  0  0  0  0  0  0  0  0  0  0
    1.8964   -3.1797    0.0000 N   0  0  0  0  0  0  0  0  0  0  0  0
    1.1917   -1.9422    0.0000 N   0  0  0  0  0  0  0  0  0  0  0  0
    1.1917   -2.7672    0.0000 C   0  0  0  0  0  0  0  0  0  0  0  0
    3.4031   -3.0136    0.0000 N   0  0  0  0  0  0  0  0  0  0  0  0
    1.8964   -1.5297    0.0000 C   0  0  0  0  0  0  0  0  0  0  0  0
    3.3917   -1.6844    0.0000 N   0  0  0  0  0  0  0  0  0  0  0  0
    3.8844   -2.3433    0.0000 C   0  0  0  0  0  0  0  0  0  0  0  0
    4.7094   -2.3433    0.0000 C   0  0  0  0  0  0  0  0  0  0  0  0
    0.4812   -3.1683    0.0000 O   0  0  0  0  0  0  0  0  0  0  0  0
    1.8964   -0.7047    0.0000 O   0  0  0  0  0  0  0  0  0  0  0  0
    8.4105   -3.0480    0.0000 C   0  0  0  0  0  0  0  0  0  0  0  0
   11.2808   -5.1964    0.0000 C   0  0  0  0  0  0  0  0  0  0  0  0
    1.8964   -4.0047    0.0000 C   0  0  0  0  0  0  0  0  0  0  0  0
    8.8230   -2.3261    0.0000 O   0  0  0  0  0  0  0  0  0  0  0  0
    0.4812   -1.5297    0.0000 C   0  0  0  0  0  0  0  0  0  0  0  0
   10.8683   -5.9125    0.0000 O   0  0  0  0  0  0  0  0  0  0  0  0
    5.1105   -3.0594    0.0000 C   0  0  0  0  0  0  0  0  0  0  0  0
    5.1105   -1.6328    0.0000 C   0  0  0  0  0  0  0  0  0  0  0  0
   14.9933   -5.9355    0.0000 O   0  0  0  0  0  0  0  0  0  0  0  0
    8.8230   -3.7526    0.0000 N   0  0  0  0  0  0  0  0  0  0  0  0
    7.1730   -2.3375    0.0000 O   0  0  0  0  0  0  0  0  0  0  0  0
   10.8797   -4.4745    0.0000 N   0  0  0  0  0  0  0  0  0  0  0  0
    7.5855   -3.0480    0.0000 C   0  0  0  0  0  0  0  0  0  0  0  0
   14.5808   -6.6401    0.0000 C   0  0  0  0  0  0  0  0  0  0  0  0
    6.3480   -2.3433    0.0000 C   0  0  0  0  0  0  0  0  0  0  0  0
    5.9355   -3.0594    0.0000 C   0  0  0  0  0  0  0  0  0  0  0  0
    5.9355   -1.6214    0.0000 C   0  0  0  0  0  0  0  0  0  0  0  0
   12.1058   -5.1964    0.0000 C   0  0  0  0  0  0  0  0  0  0  0  0
   10.0547   -4.4745    0.0000 C   0  0  0  0  0  0  0  0  0  0  0  0
    9.6480   -3.7526    0.0000 C   0  0  0  0  0  0  0  0  0  0  0  0
   13.7558   -6.6401    0.0000 C   0  0  0  0  0  0  0  0  0  0  0  0
   14.9761   -7.3620    0.0000 C   0  0  0  0  0  0  0  0  0  0  0  0
   -0.2348   -1.9422    0.0000 C   0  0  0  0  0  0  0  0  0  0  0  0
    1.1917   -4.4172    0.0000 C   0  0  0  0  0  0  0  0  0  0  0  0
   12.5183   -5.9183    0.0000 C   0  0  0  0  0  0  0  0  0  0  0  0
   13.3433   -5.9183    0.0000 C   0  0  0  0  0  0  0  0  0  0  0  0
   -0.9567   -1.5297    0.0000 C   0  0  0  0  0  0  0  0  0  0  0  0
    1.1917   -5.2422    0.0000 C   0  0  0  0  0  0  0  0  0  0  0  0
  2  1  2  0  0  0  0
  3  1  1  0  0  0  0
  4  5  1  0  0  0  0
  5  3  1  0  0  0  0
  6  1  1  0  0  0  0
  7  2  1  0  0  0  0
  8  2  1  0  0  0  0
  9  6  1  0  0  0  0
 10  9  1  0  0  0  0
 11  5  2  0  0  0  0
 12  7  2  0  0  0  0
 13 25  1  0  0  0  0
 14 24  1  0  0  0  0
 15  3  1  0  0  0  0
 16 13  2  0  0  0  0
 17  4  1  0  0  0  0
 18 14  2  0  0  0  0
 19 10  2  0  0  0  0
 20 10  1  0  0  0  0
 21 26  2  0  0  0  0
 22 13  1  0  0  0  0
 23 27  1  0  0  0  0
 24 31  1  0  0  0  0
 25 23  1  0  0  0  0
 26 33  1  0  0  0  0
 27 29  1  0  0  0  0
 28 19  1  0  0  0  0
 29 20  2  0  0  0  0
 30 14  1  0  0  0  0
 31 32  1  0  0  0  0
 32 22  1  0  0  0  0
 33 38  1  0  0  0  0
 34 26  1  0  0  0  0
 35 17  1  0  0  0  0
 36 15  1  0  0  0  0
 37 30  1  0  0  0  0
 38 37  1  0  0  0  0
 39 35  1  0  0  0  0
 40 36  1  0  0  0  0
  9  8  2  0  0  0  0
  4  7  1  0  0  0  0
 28 27  2  0  0  0  0
M  END
>  <Mol Weight>
554.6379

>  <Formula>
C28H38N6O6

>  <chembl_id>
CHEMBL9335

$$$$

  Mrv0541 06201412482D          

 39 42  0  0  1  0            999 V2000
    0.2875   -8.3667    0.0000 S   0  0  0  0  0  0  0  0  0  0  0  0
    1.7167   -8.3625    0.0000 C   0  0  2  0  0  0  0  0  0  0  0  0
    1.0000   -7.9542    0.0000 N   0  0  0  0  0  0  0  0  0  0  0  0
    2.4292   -7.9417    0.0000 C   0  0  0  0  0  0  0  0  0  0  0  0
    3.1417   -8.3542    0.0000 N   0  0  0  0  0  0  0  0  0  0  0  0
    4.5667   -9.1792    0.0000 N   0  0  0  0  0  0  0  0  0  0  0  0
    5.2875   -9.5917    0.0000 C   0  0  0  0  0  0  0  0  0  0  0  0
   -0.4333   -7.9542    0.0000 C   0  0  0  0  0  0  0  0  0  0  0  0
    1.0000   -8.7750    0.0000 O   0  0  0  0  0  0  0  0  0  0  0  0
   -0.4333   -8.7750    0.0000 O   0  0  0  0  0  0  0  0  0  0  0  0
   -1.1458   -8.3750    0.0000 C   0  0  0  0  0  0  0  0  0  0  0  0
    1.7167   -9.1875    0.0000 C   0  0  0  0  0  0  0  0  0  0  0  0
   -0.6333  -11.5042    0.0000 C   0  0  0  0  0  0  0  0  0  0  0  0
   -1.8583   -7.9625    0.0000 C   0  0  0  0  0  0  0  0  0  0  0  0
    4.5667   -8.3542    0.0000 C   0  0  0  0  0  0  0  0  0  0  0  0
    3.8542   -9.5917    0.0000 C   0  0  0  0  0  0  0  0  0  0  0  0
    3.8542   -7.9417    0.0000 C   0  0  0  0  0  0  0  0  0  0  0  0
    3.1417   -9.1792    0.0000 C   0  0  0  0  0  0  0  0  0  0  0  0
    2.4250   -7.1167    0.0000 O   0  0  0  0  0  0  0  0  0  0  0  0
   -0.0458  -10.9292    0.0000 C   0  0  0  0  0  0  0  0  0  0  0  0
    6.0000   -9.1792    0.0000 O   0  0  0  0  0  0  0  0  0  0  0  0
   -0.4333   -7.1292    0.0000 C   0  0  0  0  0  0  0  0  0  0  0  0
   -1.8583   -7.1375    0.0000 C   0  0  0  0  0  0  0  0  0  0  0  0
   -1.1500   -6.7167    0.0000 C   0  0  0  0  0  0  0  0  0  0  0  0
   -0.4250  -12.3042    0.0000 N   0  0  0  0  0  0  0  0  0  0  0  0
    0.7542  -11.1417    0.0000 C   0  0  0  0  0  0  0  0  0  0  0  0
   -0.2583  -10.1250    0.0000 C   0  0  0  0  0  0  0  0  0  0  0  0
    5.2875  -10.4167    0.0000 O   0  0  0  0  0  0  0  0  0  0  0  0
    1.1292   -9.7667    0.0000 C   0  0  0  0  0  0  0  0  0  0  0  0
   -1.4333  -11.2917    0.0000 N   0  0  0  0  0  0  0  0  0  0  0  0
   -1.0083  -12.8875    0.0000 N   0  0  0  0  0  0  0  0  0  0  0  0
    0.3292   -9.5417    0.0000 C   0  0  0  0  0  0  0  0  0  0  0  0
    1.3417  -10.5625    0.0000 C   0  0  0  0  0  0  0  0  0  0  0  0
   -2.5750   -8.3792    0.0000 C   0  0  0  0  0  0  0  0  0  0  0  0
   -2.5750   -6.7250    0.0000 C   0  0  0  0  0  0  0  0  0  0  0  0
    6.0000  -10.8292    0.0000 C   0  0  0  0  0  0  0  0  0  0  0  0
    6.0000  -11.6542    0.0000 C   0  0  0  0  0  0  0  0  0  0  0  0
   -3.2875   -7.9667    0.0000 C   0  0  0  0  0  0  0  0  0  0  0  0
   -3.2875   -7.1375    0.0000 C   0  0  0  0  0  0  0  0  0  0  0  0
  2  3  1  0  0  0  0
  3  1  1  0  0  0  0
  4  2  1  0  0  0  0
  5  4  1  0  0  0  0
  6 16  1  0  0  0  0
  7  6  1  0  0  0  0
  8  1  1  0  0  0  0
  9  1  2  0  0  0  0
 10  1  2  0  0  0  0
 11  8  2  0  0  0  0
  2 12  1  6  0  0  0
 13 20  1  0  0  0  0
 14 11  1  0  0  0  0
 15 17  1  0  0  0  0
 16 18  1  0  0  0  0
 17  5  1  0  0  0  0
 18  5  1  0  0  0  0
 19  4  2  0  0  0  0
 20 26  1  0  0  0  0
 21  7  2  0  0  0  0
 22  8  1  0  0  0  0
 23 24  1  0  0  0  0
 24 22  2  0  0  0  0
 25 13  1  0  0  0  0
 26 33  2  0  0  0  0
 27 32  1  0  0  0  0
 28  7  1  0  0  0  0
 29 12  1  0  0  0  0
 30 13  1  0  0  0  0
 31 25  1  0  0  0  0
 32 29  2  0  0  0  0
 33 29  1  0  0  0  0
 34 14  2  0  0  0  0
 35 23  2  0  0  0  0
 36 28  1  0  0  0  0
 37 36  1  0  0  0  0
 38 34  1  0  0  0  0
 39 35  1  0  0  0  0
 14 23  1  0  0  0  0
 38 39  2  0  0  0  0
 20 27  2  0  0  0  0
  6 15  1  0  0  0  0
M  END
>  <Mol Weight>
554.661

>  <Formula>
C27H34N6O5S

>  <chembl_id>
CHEMBL9293

$$$$

  Mrv0541 06201412482D          

 41 43  0  0  0  0            999 V2000
    4.6125  -11.1792    0.0000 P   0  0  0  0  0  0  0  0  0  0  0  0
    3.5167  -10.2000    0.0000 N   0  0  0  0  0  0  0  0  0  0  0  0
    4.3167  -10.4125    0.0000 C   0  0  0  0  0  0  0  0  0  0  0  0
    2.8875  -10.7292    0.0000 C   0  0  0  0  0  0  0  0  0  0  0  0
    5.1917  -10.5917    0.0000 O   0  0  0  0  0  0  0  0  0  0  0  0
    5.3250  -11.5917    0.0000 O   0  0  0  0  0  0  0  0  0  0  0  0
    1.4250  -10.9167    0.0000 N   0  0  0  0  0  0  0  0  0  0  0  0
    7.5250   -8.2417    0.0000 C   0  0  0  0  0  0  0  0  0  0  0  0
    8.1667  -13.2417    0.0000 C   0  0  0  0  0  0  0  0  0  0  0  0
    3.7167  -11.1875    0.0000 O   0  0  0  0  0  0  0  0  0  0  0  0
    2.1125  -10.4542    0.0000 C   0  0  0  0  0  0  0  0  0  0  0  0
    7.4542  -12.8292    0.0000 C   0  0  0  0  0  0  0  0  0  0  0  0
    6.9417   -8.8292    0.0000 C   0  0  0  0  0  0  0  0  0  0  0  0
    3.0292  -11.5417    0.0000 O   0  0  0  0  0  0  0  0  0  0  0  0
    8.1667  -14.0667    0.0000 O   0  0  0  0  0  0  0  0  0  0  0  0
    8.3167   -8.4542    0.0000 O   0  0  0  0  0  0  0  0  0  0  0  0
    0.8667  -12.5167    0.0000 Cl  0  0  0  0  0  0  0  0  0  0  0  0
    3.4750   -9.3750    0.0000 C   0  0  0  0  0  0  0  0  0  0  0  0
    7.3042   -7.4500    0.0000 N   0  0  0  0  0  0  0  0  0  0  0  0
    8.8792  -12.8292    0.0000 N   0  0  0  0  0  0  0  0  0  0  0  0
    7.4542  -12.0042    0.0000 C   0  0  0  0  0  0  0  0  0  0  0  0
    7.1625   -9.6292    0.0000 C   0  0  0  0  0  0  0  0  0  0  0  0
    6.7417  -13.2417    0.0000 C   0  0  0  0  0  0  0  0  0  0  0  0
    6.1375   -8.6250    0.0000 C   0  0  0  0  0  0  0  0  0  0  0  0
    5.7792  -10.0042    0.0000 C   0  0  0  0  0  0  0  0  0  0  0  0
    6.0375  -12.0042    0.0000 C   0  0  0  0  0  0  0  0  0  0  0  0
    4.7625   -9.7167    0.0000 C   0  0  0  0  0  0  0  0  0  0  0  0
    6.7417  -11.5917    0.0000 C   0  0  0  0  0  0  0  0  0  0  0  0
    6.0292  -12.8292    0.0000 C   0  0  0  0  0  0  0  0  0  0  0  0
    6.5792  -10.2167    0.0000 C   0  0  0  0  0  0  0  0  0  0  0  0
    5.5542   -9.2125    0.0000 C   0  0  0  0  0  0  0  0  0  0  0  0
    0.7750  -10.4167    0.0000 C   0  0  0  0  0  0  0  0  0  0  0  0
    4.2417   -9.0792    0.0000 C   0  0  0  0  0  0  0  0  0  0  0  0
    1.8792   -9.6667    0.0000 C   0  0  0  0  0  0  0  0  0  0  0  0
    9.5917  -13.2417    0.0000 C   0  0  0  0  0  0  0  0  0  0  0  0
    7.8875   -6.8667    0.0000 C   0  0  0  0  0  0  0  0  0  0  0  0
   10.3125  -12.8292    0.0000 C   0  0  0  0  0  0  0  0  0  0  0  0
    7.6667   -6.0667    0.0000 C   0  0  0  0  0  0  0  0  0  0  0  0
    1.0542   -9.6417    0.0000 C   0  0  0  0  0  0  0  0  0  0  0  0
   11.0167  -13.2417    0.0000 C   0  0  0  0  0  0  0  0  0  0  0  0
    8.2500   -5.4792    0.0000 C   0  0  0  0  0  0  0  0  0  0  0  0
  2  3  1  0  0  0  0
  3  1  1  0  0  0  0
  4  2  1  0  0  0  0
  5  1  1  0  0  0  0
  6  1  1  0  0  0  0
  7 11  1  0  0  0  0
  8 13  1  0  0  0  0
  9 12  1  0  0  0  0
 10  1  2  0  0  0  0
 11  4  1  0  0  0  0
 12 23  2  0  0  0  0
 13 22  2  0  0  0  0
 14  4  2  0  0  0  0
 15  9  2  0  0  0  0
 16  8  2  0  0  0  0
 18  2  1  0  0  0  0
 19  8  1  0  0  0  0
 20  9  1  0  0  0  0
 21 28  2  0  0  0  0
 22 30  1  0  0  0  0
 23 29  1  0  0  0  0
 24 31  2  0  0  0  0
 25  5  1  0  0  0  0
 26  6  1  0  0  0  0
 27  3  1  0  0  0  0
 28 26  1  0  0  0  0
 29 26  2  0  0  0  0
 30 25  2  0  0  0  0
 31 25  1  0  0  0  0
 32  7  1  0  0  0  0
 33 27  1  0  0  0  0
 34 11  1  0  0  0  0
 35 20  1  0  0  0  0
 36 19  1  0  0  0  0
 37 35  1  0  0  0  0
 38 36  1  0  0  0  0
 39 34  1  0  0  0  0
 40 37  1  0  0  0  0
 41 38  1  0  0  0  0
 33 18  1  0  0  0  0
 12 21  1  0  0  0  0
 24 13  1  0  0  0  0
 32 39  1  0  0  0  0
M  END
>  <Mol Weight>
607.078

>  <Formula>
C29H40ClN4O6P

>  <chembl_id>
CHEMBL9295

$$$$

  Mrv0541 06201412482D          

 38 42  0  0  0  0            999 V2000
   -2.1827    0.6444    0.0000 N   0  0  0  0  0  0  0  0  0  0  0  0
   -2.6649   -0.0291    0.0000 N   0  0  0  0  0  0  0  0  0  0  0  0
   -1.3595    0.6568    0.0000 C   0  0  0  0  0  0  0  0  0  0  0  0
    1.1350   -2.4862    0.0000 P   0  0  0  0  0  0  0  0  0  0  0  0
    1.5383   -1.7628    0.0000 C   0  0  0  0  0  0  0  0  0  0  0  0
   -3.4424    0.2203    0.0000 N   0  0  0  0  0  0  0  0  0  0  0  0
   -2.6774    1.3054    0.0000 C   0  0  0  0  0  0  0  0  0  0  0  0
   -3.4548    1.0435    0.0000 C   0  0  0  0  0  0  0  0  0  0  0  0
    0.8149   -1.3637    0.0000 C   0  0  0  0  0  0  0  0  0  0  0  0
   -0.5363    0.6693    0.0000 C   0  0  0  0  0  0  0  0  0  0  0  0
   -1.3428   -0.1663    0.0000 C   0  0  0  0  0  0  0  0  0  0  0  0
    0.4116   -2.0871    0.0000 O   0  0  0  0  0  0  0  0  0  0  0  0
   -1.3720    1.4842    0.0000 C   0  0  0  0  0  0  0  0  0  0  0  0
    1.9374   -1.0394    0.0000 F   0  0  0  0  0  0  0  0  0  0  0  0
    2.2617   -2.1702    0.0000 F   0  0  0  0  0  0  0  0  0  0  0  0
    0.7276   -3.2179    0.0000 O   0  0  0  0  0  0  0  0  0  0  0  0
    1.8626   -2.8978    0.0000 O   0  0  0  0  0  0  0  0  0  0  0  0
    0.8024   -0.5405    0.0000 C   0  0  0  0  0  0  0  0  0  0  0  0
    0.1040   -1.7877    0.0000 C   0  0  0  0  0  0  0  0  0  0  0  0
   -0.6319   -0.5654    0.0000 C   0  0  0  0  0  0  0  0  0  0  0  0
    0.1539    1.1183    0.0000 C   0  0  0  0  0  0  0  0  0  0  0  0
    1.5466    2.0039    0.0000 C   0  0  0  0  0  0  0  0  0  0  0  0
    0.0790   -0.1414    0.0000 C   0  0  0  0  0  0  0  0  0  0  0  0
   -0.6194   -1.3886    0.0000 C   0  0  0  0  0  0  0  0  0  0  0  0
    2.2450    2.4529    0.0000 Br  0  0  0  0  0  0  0  0  0  0  0  0
   -2.5152    2.1161    0.0000 C   0  0  0  0  0  0  0  0  0  0  0  0
    0.1164    1.9332    0.0000 C   0  0  0  0  0  0  0  0  0  0  0  0
    0.8897    0.7317    0.0000 C   0  0  0  0  0  0  0  0  0  0  0  0
    1.5840    1.1724    0.0000 C   0  0  0  0  0  0  0  0  0  0  0  0
    0.8149    2.3780    0.0000 C   0  0  0  0  0  0  0  0  0  0  0  0
   -4.0867    1.5840    0.0000 C   0  0  0  0  0  0  0  0  0  0  0  0
   -2.0954    1.8916    0.0000 C   0  0  0  0  0  0  0  0  0  0  0  0
   -0.6693    1.9083    0.0000 C   0  0  0  0  0  0  0  0  0  0  0  0
   -3.1388    2.6524    0.0000 C   0  0  0  0  0  0  0  0  0  0  0  0
   -3.9163    2.3780    0.0000 C   0  0  0  0  0  0  0  0  0  0  0  0
   -0.6818    2.7397    0.0000 C   0  0  0  0  0  0  0  0  0  0  0  0
   -2.1078    2.7065    0.0000 C   0  0  0  0  0  0  0  0  0  0  0  0
   -1.4052    3.1388    0.0000 C   0  0  0  0  0  0  0  0  0  0  0  0
  2  1  1  0  0  0  0
  3  1  1  0  0  0  0
  4  5  1  0  0  0  0
  5  9  1  0  0  0  0
  6  2  2  0  0  0  0
  7  1  1  0  0  0  0
  8  7  2  0  0  0  0
  9 19  2  0  0  0  0
 10  3  1  0  0  0  0
 11  3  1  0  0  0  0
 12  4  2  0  0  0  0
 13  3  1  0  0  0  0
 14  5  1  0  0  0  0
 15  5  1  0  0  0  0
 16  4  1  0  0  0  0
 17  4  1  0  0  0  0
 18 23  2  0  0  0  0
 19 24  1  0  0  0  0
 20 11  1  0  0  0  0
 21 10  1  0  0  0  0
 22 29  2  0  0  0  0
 23 20  1  0  0  0  0
 24 20  2  0  0  0  0
 25 22  1  0  0  0  0
 26  7  1  0  0  0  0
 27 21  1  0  0  0  0
 28 21  2  0  0  0  0
 29 28  1  0  0  0  0
 30 27  2  0  0  0  0
 31  8  1  0  0  0  0
 32 13  1  0  0  0  0
 33 13  2  0  0  0  0
 34 26  2  0  0  0  0
 35 34  1  0  0  0  0
 36 33  1  0  0  0  0
 37 32  2  0  0  0  0
 38 36  2  0  0  0  0
  6  8  1  0  0  0  0
 31 35  2  0  0  0  0
 38 37  1  0  0  0  0
 18  9  1  0  0  0  0
 22 30  1  0  0  0  0
M  END
>  <Mol Weight>
598.375

>  <Formula>
C28H23BrF2N3O3P

>  <chembl_id>
CHEMBL9339

$$$$

  Mrv0541 06201412482D          

 40 42  0  0  1  0            999 V2000
   10.9792   -6.8917    0.0000 S   0  0  0  0  0  0  0  0  0  0  0  0
    4.4292   -6.8417    0.0000 C   0  0  1  0  0  0  0  0  0  0  0  0
    3.7125   -7.2417    0.0000 C   0  0  0  0  0  0  0  0  0  0  0  0
    3.0000   -6.8292    0.0000 C   0  0  0  0  0  0  0  0  0  0  0  0
    2.2875   -7.2417    0.0000 C   0  0  2  0  0  0  0  0  0  0  0  0
    4.4375   -6.0167    0.0000 C   0  0  1  0  0  0  0  0  0  0  0  0
   11.8042   -6.8917    0.0000 C   0  0  0  0  0  0  0  0  0  0  0  0
    2.2875   -8.0667    0.0000 C   0  0  0  0  0  0  0  0  0  0  0  0
    1.5750   -8.4667    0.0000 C   0  0  0  0  0  0  0  0  0  0  0  0
    5.2250   -5.7667    0.0000 C   0  0  0  0  0  0  0  0  0  0  0  0
    8.1917   -5.9042    0.0000 N   0  3  0  0  0  0  0  0  0  0  0  0
    7.6500   -5.2792    0.0000 C   0  0  0  0  0  0  0  0  0  0  0  0
    5.2125   -7.1042    0.0000 C   0  0  0  0  0  0  0  0  0  0  0  0
    3.7292   -5.5917    0.0000 C   0  0  0  0  0  0  0  0  0  0  0  0
    3.0042   -6.0042    0.0000 C   0  0  0  0  0  0  0  0  0  0  0  0
    3.7125   -8.0667    0.0000 C   0  0  0  0  0  0  0  0  0  0  0  0
    1.5750   -6.8167    0.0000 C   0  0  0  0  0  0  0  0  0  0  0  0
    3.0000   -8.4792    0.0000 C   0  0  0  0  0  0  0  0  0  0  0  0
    5.7000   -6.4417    0.0000 C   0  0  0  0  0  0  0  0  0  0  0  0
   10.1542   -6.8917    0.0000 O   0  5  0  0  0  0  0  0  0  0  0  0
   10.9750   -6.0667    0.0000 O   0  0  0  0  0  0  0  0  0  0  0  0
   10.9750   -7.7167    0.0000 O   0  0  0  0  0  0  0  0  0  0  0  0
    0.8667   -8.0667    0.0000 C   0  0  2  0  0  0  0  0  0  0  0  0
    6.8375   -5.4417    0.0000 C   0  0  0  0  0  0  0  0  0  0  0  0
    0.8667   -7.2417    0.0000 C   0  0  0  0  0  0  0  0  0  0  0  0
   11.8000   -7.7167    0.0000 F   0  0  0  0  0  0  0  0  0  0  0  0
   12.6292   -6.8917    0.0000 F   0  0  0  0  0  0  0  0  0  0  0  0
   11.8000   -6.0667    0.0000 F   0  0  0  0  0  0  0  0  0  0  0  0
    5.4875   -4.9917    0.0000 C   0  0  1  0  0  0  0  0  0  0  0  0
    6.2917   -4.8292    0.0000 C   0  0  0  0  0  0  0  0  0  0  0  0
    7.9125   -4.5042    0.0000 N   0  0  0  0  0  0  0  0  0  0  0  0
    4.4250   -7.6667    0.0000 C   0  0  0  0  0  0  0  0  0  0  0  0
    2.2875   -6.4167    0.0000 C   0  0  0  0  0  0  0  0  0  0  0  0
    4.4375   -5.1917    0.0000 C   0  0  0  0  0  0  0  0  0  0  0  0
    0.9875   -9.0542    0.0000 C   0  0  0  0  0  0  0  0  0  0  0  0
    2.1625   -9.0542    0.0000 C   0  0  0  0  0  0  0  0  0  0  0  0
    7.9292   -6.6792    0.0000 C   0  0  0  0  0  0  0  0  0  0  0  0
    9.0000   -5.7417    0.0000 C   0  0  0  0  0  0  0  0  0  0  0  0
    0.1500   -8.4792    0.0000 O   0  0  0  0  0  0  0  0  0  0  0  0
    4.9375   -4.3667    0.0000 C   0  0  0  0  0  0  0  0  0  0  0  0
  3  2  1  0  0  0  0
  4  3  2  0  0  0  0
  5  4  1  0  0  0  0
  6  2  1  0  0  0  0
  7  1  1  0  0  0  0
  8 18  1  0  0  0  0
  9  8  1  0  0  0  0
 10  6  1  0  0  0  0
 11 12  2  0  0  0  0
 12 24  1  0  0  0  0
 13  2  1  0  0  0  0
 14  6  1  0  0  0  0
 15 14  1  0  0  0  0
 16  3  1  0  0  0  0
 17  5  1  0  0  0  0
 18 16  1  0  0  0  0
 19 13  1  0  0  0  0
 20  1  1  0  0  0  0
 21  1  2  0  0  0  0
 22  1  2  0  0  0  0
 23  9  1  0  0  0  0
 24 30  1  0  0  0  0
 25 17  1  0  0  0  0
 26  7  1  0  0  0  0
 27  7  1  0  0  0  0
 28  7  1  0  0  0  0
 29 10  1  0  0  0  0
 30 29  1  0  0  0  0
 31 12  1  0  0  0  0
  2 32  1  6  0  0  0
  5 33  1  1  0  0  0
  6 34  1  1  0  0  0
 35  9  1  0  0  0  0
 36  9  1  0  0  0  0
 37 11  1  0  0  0  0
 38 11  1  0  0  0  0
 23 39  1  1  0  0  0
 29 40  1  6  0  0  0
 10 19  1  0  0  0  0
 15  4  1  0  0  0  0
  5  8  1  0  0  0  0
 23 25  1  0  0  0  0
M  CHG  2  11   1  20  -1
M  END
>  <Mol Weight>
592.797

>  <Formula>
C30H51F3N2O4S

>  <chembl_id>
CHEMBL9875

$$$$

  Mrv0541 06201412482D          

 41 46  0  0  0  0            999 V2000
   13.4615  -23.7216    0.0000 C   0  0  0  0  0  0  0  0  0  0  0  0
   13.0610  -24.4399    0.0000 C   0  0  0  0  0  0  0  0  0  0  0  0
   13.4843  -25.1472    0.0000 C   0  0  0  0  0  0  0  0  0  0  0  0
   14.3148  -25.1287    0.0000 C   0  0  0  0  0  0  0  0  0  0  0  0
   14.7127  -24.4014    0.0000 C   0  0  0  0  0  0  0  0  0  0  0  0
   14.2833  -23.6969    0.0000 C   0  0  0  0  0  0  0  0  0  0  0  0
    9.2705  -20.9468    0.0000 C   0  0  0  0  0  0  0  0  0  0  0  0
    9.6958  -21.6495    0.0000 N   0  0  0  0  0  0  0  0  0  0  0  0
   10.5248  -21.6317    0.0000 C   0  0  0  0  0  0  0  0  0  0  0  0
   10.9207  -20.9108    0.0000 C   0  0  0  0  0  0  0  0  0  0  0  0
   10.4860  -20.2026    0.0000 C   0  0  0  0  0  0  0  0  0  0  0  0
    9.6622  -20.2237    0.0000 N   0  0  0  0  0  0  0  0  0  0  0  0
    5.2015  -19.4633    0.0000 C   0  0  0  0  0  0  0  0  0  0  0  0
    4.4883  -19.8811    0.0000 C   0  0  0  0  0  0  0  0  0  0  0  0
    4.4962  -20.7024    0.0000 C   0  0  0  0  0  0  0  0  0  0  0  0
    5.2201  -21.1110    0.0000 C   0  0  0  0  0  0  0  0  0  0  0  0
    6.7038  -19.5985    0.0000 N   0  0  0  0  0  0  0  0  0  0  0  0
    5.9184  -19.8608    0.0000 C   0  0  0  0  0  0  0  0  0  0  0  0
    5.9296  -20.6902    0.0000 C   0  0  0  0  0  0  0  0  0  0  0  0
    6.7169  -20.9306    0.0000 N   0  0  0  0  0  0  0  0  0  0  0  0
    7.1944  -20.2574    0.0000 C   0  0  0  0  0  0  0  0  0  0  0  0
    8.0203  -20.2480    0.0000 C   0  0  0  0  0  0  0  0  0  0  0  0
    8.4395  -20.9585    0.0000 S   0  0  0  0  0  0  0  0  0  0  0  0
   10.8788  -19.4771    0.0000 C   0  0  0  0  0  0  0  0  0  0  0  0
   11.7030  -19.4563    0.0000 C   0  0  0  0  0  0  0  0  0  0  0  0
   12.0958  -18.7316    0.0000 C   0  0  0  0  0  0  0  0  0  0  0  0
   11.6667  -18.0260    0.0000 C   0  0  0  0  0  0  0  0  0  0  0  0
   10.8332  -18.0533    0.0000 C   0  0  0  0  0  0  0  0  0  0  0  0
   10.4440  -18.7785    0.0000 C   0  0  0  0  0  0  0  0  0  0  0  0
   11.7462  -20.9150    0.0000 C   0  0  0  0  0  0  0  0  0  0  0  0
   12.5721  -20.9250    0.0000 N   0  0  0  0  0  0  0  0  0  0  0  0
   10.9549  -22.3380    0.0000 N   0  0  0  0  0  0  0  0  0  0  0  0
   10.5582  -23.0603    0.0000 C   0  0  0  0  0  0  0  0  0  0  0  0
   10.9812  -23.7646    0.0000 C   0  0  0  0  0  0  0  0  0  0  0  0
   11.8074  -23.7509    0.0000 N   0  0  0  0  0  0  0  0  0  0  0  0
   12.2089  -23.0230    0.0000 C   0  0  0  0  0  0  0  0  0  0  0  0
   11.7764  -22.3129    0.0000 C   0  0  0  0  0  0  0  0  0  0  0  0
   12.2313  -24.4547    0.0000 S   0  0  0  0  0  0  0  0  0  0  0  0
   11.4357  -24.6630    0.0000 O   0  0  0  0  0  0  0  0  0  0  0  0
   12.4401  -25.2447    0.0000 O   0  0  0  0  0  0  0  0  0  0  0  0
   15.5414  -24.3821    0.0000 C   0  0  0  0  0  0  0  0  0  0  0  0
 19 20  1  0  0  0  0
 20 21  1  0  0  0  0
 21 17  2  0  0  0  0
 10 11  1  0  0  0  0
 21 22  1  0  0  0  0
  5  6  2  0  0  0  0
 22 23  1  0  0  0  0
 23  7  1  0  0  0  0
 11 12  2  0  0  0  0
 11 24  1  0  0  0  0
 12  7  1  0  0  0  0
 24 25  2  0  0  0  0
  6  1  1  0  0  0  0
 25 26  1  0  0  0  0
  1  2  2  0  0  0  0
 26 27  2  0  0  0  0
 13 14  2  0  0  0  0
 27 28  1  0  0  0  0
  3  4  2  0  0  0  0
 28 29  2  0  0  0  0
 29 24  1  0  0  0  0
 14 15  1  0  0  0  0
  7  8  2  0  0  0  0
 30 31  3  0  0  0  0
 10 30  1  0  0  0  0
 15 16  2  0  0  0  0
  9 32  1  0  0  0  0
 32 33  1  0  0  0  0
 16 19  1  0  0  0  0
 18 13  1  0  0  0  0
 18 19  2  0  0  0  0
  8  9  1  0  0  0  0
 32 37  1  0  0  0  0
 33 34  1  0  0  0  0
 34 35  1  0  0  0  0
 35 36  1  0  0  0  0
 36 37  1  0  0  0  0
  4  5  1  0  0  0  0
 35 38  1  0  0  0  0
 38  2  1  0  0  0  0
  9 10  2  0  0  0  0
 38 39  2  0  0  0  0
  2  3  1  0  0  0  0
 38 40  2  0  0  0  0
 17 18  1  0  0  0  0
  5 41  1  0  0  0  0
M  END
>  <Mol Weight>
581.711

>  <Formula>
C30H27N7O2S2

>  <chembl_id>
CHEMBL1163277

$$$$

  Mrv0541 06201412482D          

 37 38  0  0  0  0            999 V2000
    4.9917   -4.9042    0.0000 C   0  0  0  0  0  0  0  0  0  0  0  0
    1.7292   -5.6417    0.0000 C   0  0  0  0  0  0  0  0  0  0  0  0
    7.2000   -2.3917    0.0000 C   0  0  0  0  0  0  0  0  0  0  0  0
    5.2500   -5.6917    0.0000 N   0  0  0  0  0  0  0  0  0  0  0  0
    1.4750   -6.4292    0.0000 N   0  0  0  0  0  0  0  0  0  0  0  0
    7.8667   -2.8792    0.0000 N   0  0  0  0  0  0  0  0  0  0  0  0
    2.5167   -5.3917    0.0000 C   0  0  0  0  0  0  0  0  0  0  0  0
    5.4792   -4.2417    0.0000 C   0  0  0  0  0  0  0  0  0  0  0  0
    3.9167   -5.6917    0.0000 C   0  0  0  0  0  0  0  0  0  0  0  0
    6.7875   -3.6625    0.0000 C   0  0  0  0  0  0  0  0  0  0  0  0
    4.1667   -4.9042    0.0000 C   0  0  0  0  0  0  0  0  0  0  0  0
    6.5292   -2.8792    0.0000 C   0  0  0  0  0  0  0  0  0  0  0  0
    1.0625   -5.1625    0.0000 C   0  0  0  0  0  0  0  0  0  0  0  0
    4.5792   -6.1792    0.0000 C   0  0  0  0  0  0  0  0  0  0  0  0
    7.6042   -3.6667    0.0000 C   0  0  0  0  0  0  0  0  0  0  0  0
    0.6500   -6.4292    0.0000 C   0  0  0  0  0  0  0  0  0  0  0  0
    6.3000   -4.3292    0.0000 N   0  0  0  0  0  0  0  0  0  0  0  0
    3.1292   -5.9417    0.0000 N   0  0  0  0  0  0  0  0  0  0  0  0
    0.4000   -5.6417    0.0000 C   0  0  0  0  0  0  0  0  0  0  0  0
    7.2000   -1.5667    0.0000 C   0  0  0  0  0  0  0  0  0  0  0  0
    8.6292    1.7333    0.0000 N   0  0  0  0  0  0  0  0  0  0  0  0
    8.6292    0.9083    0.0000 C   0  0  0  0  0  0  0  0  0  0  0  0
    2.6917   -4.5875    0.0000 O   0  0  0  0  0  0  0  0  0  0  0  0
    5.1417   -3.4875    0.0000 O   0  0  0  0  0  0  0  0  0  0  0  0
   -1.0000   -5.9417    0.0000 C   0  0  0  0  0  0  0  0  0  0  0  0
    8.6292    0.0833    0.0000 C   0  0  0  0  0  0  0  0  0  0  0  0
   -0.3833   -5.3917    0.0000 N   0  0  0  0  0  0  0  0  0  0  0  0
    6.4875   -1.1542    0.0000 O   0  0  0  0  0  0  0  0  0  0  0  0
    6.3375    1.7750    0.0000 Br  0  0  0  0  0  0  0  0  0  0  0  0
    7.9167   -1.1542    0.0000 N   0  0  0  0  0  0  0  0  0  0  0  0
   -0.8250   -6.7500    0.0000 O   0  0  0  0  0  0  0  0  0  0  0  0
    9.4542    0.9083    0.0000 N   0  0  0  0  0  0  0  0  0  0  0  0
    7.9167   -0.3292    0.0000 C   0  0  0  0  0  0  0  0  0  0  0  0
    8.6500   -2.6292    0.0000 C   0  0  0  0  0  0  0  0  0  0  0  0
    1.9625   -7.1000    0.0000 C   0  0  0  0  0  0  0  0  0  0  0  0
    6.0292   -5.9500    0.0000 C   0  0  0  0  0  0  0  0  0  0  0  0
    9.2625   -3.1792    0.0000 C   0  0  0  0  0  0  0  0  0  0  0  0
  2  7  1  0  0  0  0
  3 12  2  0  0  0  0
  4  1  1  0  0  0  0
  5  2  1  0  0  0  0
  6 15  1  0  0  0  0
  7 18  1  0  0  0  0
  8  1  1  0  0  0  0
  9 11  1  0  0  0  0
 10 17  1  0  0  0  0
 11  1  2  0  0  0  0
 12 10  1  0  0  0  0
 13  2  2  0  0  0  0
 14  4  1  0  0  0  0
 15 10  2  0  0  0  0
 16  5  1  0  0  0  0
 17  8  1  0  0  0  0
 18  9  1  0  0  0  0
 19 13  1  0  0  0  0
 20  3  1  0  0  0  0
 21 22  2  0  0  0  0
 22 26  1  0  0  0  0
 23  7  2  0  0  0  0
 24  8  2  0  0  0  0
 25 27  1  0  0  0  0
 26 33  1  0  0  0  0
 27 19  1  0  0  0  0
 28 20  2  0  0  0  0
 30 20  1  0  0  0  0
 31 25  2  0  0  0  0
 32 22  1  0  0  0  0
 33 30  1  0  0  0  0
 34  6  1  0  0  0  0
 35  5  1  0  0  0  0
 36  4  1  0  0  0  0
 37 34  1  0  0  0  0
  9 14  2  0  0  0  0
  6  3  1  0  0  0  0
 19 16  2  0  0  0  0
M  END
>  <Mol Weight>
576.446

>  <Formula>
C23H30BrN9O4

>  <chembl_id>
CHEMBL9504

$$$$

  Mrv0541 06201412482D          

 44 47  0  0  1  0            999 V2000
   -1.3862   -1.0439    0.0000 C   0  0  2  0  0  0  0  0  0  0  0  0
    0.8685   -1.7829    0.0000 C   0  0  0  0  0  0  0  0  0  0  0  0
   -0.5637   -0.9645    0.0000 C   0  0  0  0  0  0  0  0  0  0  0  0
    1.5825   -1.3695    0.0000 C   0  0  0  0  0  0  0  0  0  0  0  0
    2.3048   -1.7829    0.0000 C   0  0  0  0  0  0  0  0  0  0  0  0
    0.1545   -1.3695    0.0000 O   0  0  0  0  0  0  0  0  0  0  0  0
    0.8685   -2.6096    0.0000 C   0  0  0  0  0  0  0  0  0  0  0  0
    1.5825   -3.0230    0.0000 O   0  0  0  0  0  0  0  0  0  0  0  0
    2.3048   -2.6096    0.0000 C   0  0  0  0  0  0  0  0  0  0  0  0
   -1.7244   -0.2923    0.0000 C   0  0  0  0  0  0  0  0  0  0  0  0
   -1.5866   -1.8956    0.0000 C   0  0  0  0  0  0  0  0  0  0  0  0
   -1.9874   -1.5282    0.0000 C   0  0  0  0  0  0  0  0  0  0  0  0
   -2.4008   -1.9332    0.0000 C   0  0  2  0  0  0  0  0  0  0  0  0
   -2.7432   -1.5908    0.0000 C   0  0  1  0  0  0  0  0  0  0  0  0
   -2.5386   -0.3299    0.0000 C   0  0  1  0  0  0  0  0  0  0  0  0
    4.4509   -3.0230    0.0000 C   0  0  0  0  0  0  0  0  0  0  0  0
   -0.5720   -0.1378    0.0000 O   0  0  0  0  0  0  0  0  0  0  0  0
    1.5825   -0.5428    0.0000 O   0  0  0  0  0  0  0  0  0  0  0  0
    4.4509   -3.8497    0.0000 O   0  0  0  0  0  0  0  0  0  0  0  0
   -3.0396   -2.4843    0.0000 C   0  0  0  0  0  0  0  0  0  0  0  0
   -3.0897   -0.8685    0.0000 C   0  0  0  0  0  0  0  0  0  0  0  0
   -2.7640   -1.1691    0.0000 C   0  0  0  0  0  0  0  0  0  0  0  0
    3.7369   -2.6096    0.0000 O   0  0  0  0  0  0  0  0  0  0  0  0
   10.1627   -3.0062    0.0000 C   0  0  0  0  0  0  0  0  0  0  0  0
   10.8767   -2.5929    0.0000 C   0  0  0  0  0  0  0  0  0  0  0  0
    3.0230   -3.0230    0.0000 C   0  0  0  0  0  0  0  0  0  0  0  0
    5.1649   -2.6096    0.0000 C   0  0  0  0  0  0  0  0  0  0  0  0
    9.4487   -2.5971    0.0000 C   0  0  0  0  0  0  0  0  0  0  0  0
   11.5907   -2.9979    0.0000 C   0  0  0  0  0  0  0  0  0  0  0  0
    5.8789   -3.0187    0.0000 C   0  0  0  0  0  0  0  0  0  0  0  0
    8.7348   -3.0104    0.0000 C   0  0  0  0  0  0  0  0  0  0  0  0
   12.3046   -2.5845    0.0000 C   0  0  0  0  0  0  0  0  0  0  0  0
   15.8745   -2.9854    0.0000 C   0  0  0  0  0  0  0  0  0  0  0  0
   15.1606   -2.5803    0.0000 C   0  0  0  0  0  0  0  0  0  0  0  0
    8.0208   -2.5971    0.0000 C   0  0  0  0  0  0  0  0  0  0  0  0
   13.0186   -2.9979    0.0000 C   0  0  0  0  0  0  0  0  0  0  0  0
   13.7326   -2.5845    0.0000 C   0  0  0  0  0  0  0  0  0  0  0  0
   14.4466   -2.9937    0.0000 C   0  0  0  0  0  0  0  0  0  0  0  0
    6.5928   -2.6054    0.0000 C   0  0  0  0  0  0  0  0  0  0  0  0
    7.3068   -3.0104    0.0000 C   0  0  0  0  0  0  0  0  0  0  0  0
   16.5885   -2.5720    0.0000 C   0  0  0  0  0  0  0  0  0  0  0  0
   -2.8684    0.4134    0.0000 H   0  0  0  0  0  0  0  0  0  0  0  0
   -2.0918   -2.6973    0.0000 H   0  0  0  0  0  0  0  0  0  0  0  0
   -3.5574   -1.6409    0.0000 H   0  0  0  0  0  0  0  0  0  0  0  0
  2  6  1  0  0  0  0
  1  3  1  6  0  0  0
  4  2  1  0  0  0  0
  5  4  1  0  0  0  0
  6  3  1  0  0  0  0
  7  2  2  0  0  0  0
  8  7  1  0  0  0  0
  9  8  1  0  0  0  0
 10  1  1  0  0  0  0
 11  1  1  0  0  0  0
 12  1  1  0  0  0  0
 13 11  1  0  0  0  0
 14 12  1  0  0  0  0
 15 10  1  0  0  0  0
 16 23  1  0  0  0  0
 17  3  2  0  0  0  0
 18  4  2  0  0  0  0
 19 16  2  0  0  0  0
 20 14  1  0  0  0  0
 21 14  1  0  0  0  0
 22 13  1  0  0  0  0
 23 26  1  0  0  0  0
 24 28  1  0  0  0  0
 25 24  2  0  0  0  0
 26  9  1  0  0  0  0
 27 16  1  0  0  0  0
 28 31  1  0  0  0  0
 29 25  1  0  0  0  0
 30 27  1  0  0  0  0
 31 35  1  0  0  0  0
 32 29  1  0  0  0  0
 33 34  1  0  0  0  0
 34 38  1  0  0  0  0
 35 40  1  0  0  0  0
 36 32  1  0  0  0  0
 37 36  1  0  0  0  0
 38 37  1  0  0  0  0
 39 30  1  0  0  0  0
 40 39  1  0  0  0  0
 41 33  1  0  0  0  0
 15 42  1  1  0  0  0
 13 43  1  1  0  0  0
 14 44  1  6  0  0  0
 21 15  1  0  0  0  0
 20 13  1  0  0  0  0
 15 22  1  0  0  0  0
  5  9  2  0  0  0  0
M  END
>  <Mol Weight>
568.7838

>  <Formula>
C35H52O6

>  <chembl_id>
CHEMBL9617

$$$$

  Mrv0541 06201412482D          

 43 46  0  0  0  0            999 V2000
    2.2517   -2.3017    0.0000 C   0  0  0  0  0  0  0  0  0  0  0  0
    2.9642   -1.8847    0.0000 C   0  0  0  0  0  0  0  0  0  0  0  0
    3.6767   -2.3017    0.0000 C   0  0  2  0  0  0  0  0  0  0  0  0
    4.3826   -3.5408    0.0000 C   0  0  0  0  0  0  0  0  0  0  0  0
    5.0999   -3.1333    0.0000 C   0  0  0  0  0  0  0  0  0  0  0  0
    5.1034   -2.3078    0.0000 C   0  0  0  0  0  0  0  0  0  0  0  0
    4.3896   -1.8896    0.0000 C   0  0  1  0  0  0  0  0  0  0  0  0
    3.6694   -1.4761    0.0000 C   0  0  0  0  0  0  0  0  0  0  0  0
    2.9642   -3.5359    0.0000 C   0  0  2  0  0  0  0  0  0  0  0  0
    2.2517   -3.1273    0.0000 C   0  0  2  0  0  0  0  0  0  0  0  0
    1.5454   -3.5378    0.0000 O   0  0  0  0  0  0  0  0  0  0  0  0
    1.5455   -4.3586    0.0000 C   0  0  0  0  0  0  0  0  0  0  0  0
    2.2581   -4.7672    0.0000 O   0  0  0  0  0  0  0  0  0  0  0  0
    2.9705   -4.3550    0.0000 C   0  0  0  0  0  0  0  0  0  0  0  0
    3.6735   -3.9487    0.0000 C   0  0  0  0  0  0  0  0  0  0  0  0
    0.7423   -4.1406    0.0000 C   0  0  0  0  0  0  0  0  0  0  0  0
    0.9549   -4.9412    0.0000 C   0  0  0  0  0  0  0  0  0  0  0  0
    4.3920   -1.0641    0.0000 C   0  0  0  0  0  0  0  0  0  0  0  0
    5.8205   -1.8987    0.0000 C   0  0  0  0  0  0  0  0  0  0  0  0
    5.1081   -0.6533    0.0000 C   0  0  0  0  0  0  0  0  0  0  0  0
    5.1105    0.1723    0.0000 C   0  0  0  0  0  0  0  0  0  0  0  0
    5.7784    0.6528    0.0000 C   0  0  0  0  0  0  0  0  0  0  0  0
    5.5255    1.4388    0.0000 O   0  0  0  0  0  0  0  0  0  0  0  0
    4.6999    1.4412    0.0000 C   0  0  0  0  0  0  0  0  0  0  0  0
    4.4426    0.6567    0.0000 C   0  0  1  0  0  0  0  0  0  0  0  0
    6.5627    0.3947    0.0000 O   0  0  0  0  0  0  0  0  0  0  0  0
    3.6575    0.4023    0.0000 O   0  0  0  0  0  0  0  0  0  0  0  0
    2.9587    0.8418    0.0000 C   0  0  0  0  0  0  0  0  0  0  0  0
    2.9899    1.6668    0.0000 O   0  0  0  0  0  0  0  0  0  0  0  0
    2.2434    0.4295    0.0000 C   0  0  0  0  0  0  0  0  0  0  0  0
    1.5303    0.8423    0.0000 C   0  0  0  0  0  0  0  0  0  0  0  0
    0.8173    0.4295    0.0000 C   0  0  0  0  0  0  0  0  0  0  0  0
    0.1043    0.8423    0.0000 C   0  0  0  0  0  0  0  0  0  0  0  0
   -0.6088    0.4295    0.0000 C   0  0  0  0  0  0  0  0  0  0  0  0
   -1.3218    0.8423    0.0000 C   0  0  0  0  0  0  0  0  0  0  0  0
   -2.0348    0.4295    0.0000 C   0  0  0  0  0  0  0  0  0  0  0  0
   -2.7478    0.8423    0.0000 C   0  0  0  0  0  0  0  0  0  0  0  0
   -3.4609    0.4295    0.0000 C   0  0  0  0  0  0  0  0  0  0  0  0
   -4.1739    0.8423    0.0000 C   0  0  0  0  0  0  0  0  0  0  0  0
   -4.8869    0.4295    0.0000 C   0  0  0  0  0  0  0  0  0  0  0  0
    1.5344   -2.7145    0.0000 H   0  0  0  0  0  0  0  0  0  0  0  0
    3.6732   -3.1273    0.0000 C   0  0  2  0  0  0  0  0  0  0  0  0
    2.9587   -2.7148    0.0000 H   0  0  0  0  0  0  0  0  0  0  0  0
  6 19  2  0  0  0  0
  3  8  1  6  0  0  0
 18 20  1  0  0  0  0
  9 10  1  0  0  0  0
 20 21  2  0  0  0  0
 21 22  1  0  0  0  0
 10  1  1  0  0  0  0
  1  2  1  0  0  0  0
 42  9  1  0  0  0  0
  3  2  1  0  0  0  0
 22 23  1  0  0  0  0
 23 24  1  0  0  0  0
 24 25  1  0  0  0  0
 25 21  1  0  0  0  0
 42  3  1  0  0  0  0
 22 26  2  0  0  0  0
  3  7  1  0  0  0  0
 25 27  1  6  0  0  0
  9 14  1  0  0  0  0
 27 28  1  0  0  0  0
 10 11  1  0  0  0  0
 28 29  2  0  0  0  0
 11 12  1  0  0  0  0
 28 30  1  0  0  0  0
 12 13  1  0  0  0  0
 30 31  1  0  0  0  0
 13 14  1  0  0  0  0
 31 32  1  0  0  0  0
 42  4  1  0  0  0  0
 32 33  1  0  0  0  0
  9 15  1  1  0  0  0
 33 34  1  0  0  0  0
  4  5  1  0  0  0  0
 34 35  1  0  0  0  0
 12 16  1  0  0  0  0
 35 36  1  0  0  0  0
  5  6  1  0  0  0  0
 36 37  1  0  0  0  0
 12 17  1  0  0  0  0
 37 38  1  0  0  0  0
  7  6  1  0  0  0  0
 38 39  1  0  0  0  0
  7 18  1  6  0  0  0
 39 40  1  0  0  0  0
 10 41  1  1  0  0  0
 42 43  1  1  0  0  0
M  END
>  <Mol Weight>
572.8155

>  <Formula>
C35H56O6

>  <chembl_id>
CHEMBL1163298

$$$$

  Mrv0541 06201412482D          

 37 38  0  0  0  0            999 V2000
    4.9917   -4.9042    0.0000 C   0  0  0  0  0  0  0  0  0  0  0  0
    1.7292   -5.6417    0.0000 C   0  0  0  0  0  0  0  0  0  0  0  0
    7.2000   -2.3917    0.0000 C   0  0  0  0  0  0  0  0  0  0  0  0
    5.2500   -5.6917    0.0000 N   0  0  0  0  0  0  0  0  0  0  0  0
    1.4750   -6.4292    0.0000 N   0  0  0  0  0  0  0  0  0  0  0  0
    7.8667   -2.8792    0.0000 N   0  0  0  0  0  0  0  0  0  0  0  0
    2.5167   -5.3917    0.0000 C   0  0  0  0  0  0  0  0  0  0  0  0
    5.4792   -4.2417    0.0000 C   0  0  0  0  0  0  0  0  0  0  0  0
    3.9167   -5.6917    0.0000 C   0  0  0  0  0  0  0  0  0  0  0  0
    6.7875   -3.6625    0.0000 C   0  0  0  0  0  0  0  0  0  0  0  0
    4.1667   -4.9042    0.0000 C   0  0  0  0  0  0  0  0  0  0  0  0
    6.5292   -2.8792    0.0000 C   0  0  0  0  0  0  0  0  0  0  0  0
    1.0625   -5.1625    0.0000 C   0  0  0  0  0  0  0  0  0  0  0  0
    7.6042   -3.6667    0.0000 C   0  0  0  0  0  0  0  0  0  0  0  0
    4.5792   -6.1792    0.0000 C   0  0  0  0  0  0  0  0  0  0  0  0
    0.6500   -6.4292    0.0000 C   0  0  0  0  0  0  0  0  0  0  0  0
    6.3000   -4.3292    0.0000 N   0  0  0  0  0  0  0  0  0  0  0  0
    3.1292   -5.9417    0.0000 N   0  0  0  0  0  0  0  0  0  0  0  0
    0.4000   -5.6417    0.0000 C   0  0  0  0  0  0  0  0  0  0  0  0
    7.2000   -1.5667    0.0000 C   0  0  0  0  0  0  0  0  0  0  0  0
    8.6292    1.7333    0.0000 N   0  0  0  0  0  0  0  0  0  0  0  0
    8.6292    0.9083    0.0000 C   0  0  0  0  0  0  0  0  0  0  0  0
    2.6917   -4.5875    0.0000 O   0  0  0  0  0  0  0  0  0  0  0  0
    5.1417   -3.4875    0.0000 O   0  0  0  0  0  0  0  0  0  0  0  0
   -1.0000   -5.9417    0.0000 C   0  0  0  0  0  0  0  0  0  0  0  0
    8.6292    0.0833    0.0000 C   0  0  0  0  0  0  0  0  0  0  0  0
   -0.3833   -5.3917    0.0000 N   0  0  0  0  0  0  0  0  0  0  0  0
    6.4875   -1.1542    0.0000 O   0  0  0  0  0  0  0  0  0  0  0  0
    6.3375    1.7750    0.0000 Br  0  0  0  0  0  0  0  0  0  0  0  0
    7.9167   -1.1542    0.0000 N   0  0  0  0  0  0  0  0  0  0  0  0
   -0.8250   -6.7500    0.0000 O   0  0  0  0  0  0  0  0  0  0  0  0
    9.4542    0.9083    0.0000 N   0  0  0  0  0  0  0  0  0  0  0  0
    7.9167   -0.3292    0.0000 C   0  0  0  0  0  0  0  0  0  0  0  0
    6.0292   -5.9500    0.0000 C   0  0  0  0  0  0  0  0  0  0  0  0
    8.6500   -2.6292    0.0000 C   0  0  0  0  0  0  0  0  0  0  0  0
    1.9625   -7.1000    0.0000 C   0  0  0  0  0  0  0  0  0  0  0  0
    9.8667    1.6208    0.0000 C   0  0  0  0  0  0  0  0  0  0  0  0
  2  7  1  0  0  0  0
  3 12  2  0  0  0  0
  4  1  1  0  0  0  0
  5  2  1  0  0  0  0
  6 14  1  0  0  0  0
  7 18  1  0  0  0  0
  8  1  1  0  0  0  0
  9 11  1  0  0  0  0
 10 17  1  0  0  0  0
 11  1  2  0  0  0  0
 12 10  1  0  0  0  0
 13  2  2  0  0  0  0
 14 10  2  0  0  0  0
 15  4  1  0  0  0  0
 16  5  1  0  0  0  0
 17  8  1  0  0  0  0
 18  9  1  0  0  0  0
 19 13  1  0  0  0  0
 20  3  1  0  0  0  0
 21 22  2  0  0  0  0
 22 26  1  0  0  0  0
 23  7  2  0  0  0  0
 24  8  2  0  0  0  0
 25 27  1  0  0  0  0
 26 33  1  0  0  0  0
 27 19  1  0  0  0  0
 28 20  2  0  0  0  0
 30 20  1  0  0  0  0
 31 25  2  0  0  0  0
 32 22  1  0  0  0  0
 33 30  1  0  0  0  0
 34  4  1  0  0  0  0
 35  6  1  0  0  0  0
 36  5  1  0  0  0  0
 37 32  1  0  0  0  0
  9 15  2  0  0  0  0
  6  3  1  0  0  0  0
 19 16  2  0  0  0  0
M  END
>  <Mol Weight>
576.446

>  <Formula>
C23H30BrN9O4

>  <chembl_id>
CHEMBL9879

$$$$

  Mrv0541 06201412482D          

 38 40  0  0  0  0            999 V2000
   10.1120   -2.8589    0.0000 N   0  0  0  0  0  0  0  0  0  0  0  0
    9.4073   -2.4464    0.0000 C   0  0  0  0  0  0  0  0  0  0  0  0
    9.4073   -1.6214    0.0000 N   0  0  0  0  0  0  0  0  0  0  0  0
    9.9745   -4.6234    0.0000 C   0  0  0  0  0  0  0  0  0  0  0  0
   10.8339   -2.4464    0.0000 C   0  0  0  0  0  0  0  0  0  0  0  0
   10.8339   -1.6214    0.0000 C   0  0  0  0  0  0  0  0  0  0  0  0
    6.6573   -3.7984    0.0000 P   0  0  0  0  0  0  0  0  0  0  0  0
   10.1120   -1.2089    0.0000 C   0  0  0  0  0  0  0  0  0  0  0  0
    9.0292   -4.1995    0.0000 O   0  0  0  0  0  0  0  0  0  0  0  0
    9.5620   -5.3339    0.0000 C   0  0  0  0  0  0  0  0  0  0  0  0
    8.7484   -6.7719    0.0000 N   0  3  0  0  0  0  0  0  0  0  0  0
    8.3245   -4.6234    0.0000 C   0  0  0  0  0  0  0  0  0  0  0  0
    8.7370   -5.3339    0.0000 C   0  0  0  0  0  0  0  0  0  0  0  0
    6.6573   -4.6234    0.0000 N   0  0  0  0  0  0  0  0  0  0  0  0
    6.6745   -5.5745    0.0000 C   0  0  0  0  0  0  0  0  0  0  0  0
    9.1609   -7.4823    0.0000 N   0  5  0  0  0  0  0  0  0  0  0  0
    5.8495   -6.0730    0.0000 C   0  0  0  0  0  0  0  0  0  0  0  0
    8.3359   -6.0558    0.0000 N   0  0  0  0  0  0  0  0  0  0  0  0
    8.3073   -3.7984    0.0000 C   0  0  0  0  0  0  0  0  0  0  0  0
    7.4823   -3.7984    0.0000 O   0  0  0  0  0  0  0  0  0  0  0  0
    8.6969   -2.8589    0.0000 O   0  0  0  0  0  0  0  0  0  0  0  0
    5.8323   -3.7984    0.0000 O   0  0  0  0  0  0  0  0  0  0  0  0
    6.6573   -2.9734    0.0000 O   0  0  0  0  0  0  0  0  0  0  0  0
   10.1120   -0.3839    0.0000 O   0  0  0  0  0  0  0  0  0  0  0  0
    5.8839   -6.8922    0.0000 O   0  0  0  0  0  0  0  0  0  0  0  0
    5.0073   -3.7984    0.0000 C   0  0  0  0  0  0  0  0  0  0  0  0
   11.5500   -1.2089    0.0000 C   0  0  0  0  0  0  0  0  0  0  0  0
    5.1276   -5.6776    0.0000 O   0  0  0  0  0  0  0  0  0  0  0  0
    3.3573   -3.7870    0.0000 C   0  0  0  0  0  0  0  0  0  0  0  0
    4.5948   -3.0766    0.0000 C   0  0  0  0  0  0  0  0  0  0  0  0
    4.5948   -4.5089    0.0000 C   0  0  0  0  0  0  0  0  0  0  0  0
    3.7698   -4.5089    0.0000 C   0  0  0  0  0  0  0  0  0  0  0  0
    3.7698   -3.0766    0.0000 C   0  0  0  0  0  0  0  0  0  0  0  0
    7.5167   -6.0386    0.0000 C   0  0  0  0  0  0  0  0  0  0  0  0
    2.5266   -3.7870    0.0000 C   0  0  0  0  0  0  0  0  0  0  0  0
    4.4230   -6.1073    0.0000 C   0  0  0  0  0  0  0  0  0  0  0  0
    2.1141   -3.0766    0.0000 C   0  0  0  0  0  0  0  0  0  0  0  0
    1.2891   -3.0823    0.0000 C   0  0  0  0  0  0  0  0  0  0  0  0
  2  1  1  0  0  0  0
  3  2  1  0  0  0  0
  4  1  1  0  0  0  0
  5  1  1  0  0  0  0
  6  5  2  0  0  0  0
  7 20  1  0  0  0  0
  8  6  1  0  0  0  0
  9  4  1  0  0  0  0
 10  4  1  0  0  0  0
 11 18  2  0  0  0  0
 12  9  1  0  0  0  0
 13 10  1  0  0  0  0
 14  7  1  0  0  0  0
 15 14  1  0  0  0  0
 16 11  2  0  0  0  0
 17 15  1  0  0  0  0
 18 13  1  0  0  0  0
 19 12  1  0  0  0  0
 20 19  1  0  0  0  0
 21  2  2  0  0  0  0
 22  7  1  0  0  0  0
 23  7  2  0  0  0  0
 24  8  2  0  0  0  0
 25 17  2  0  0  0  0
 26 22  1  0  0  0  0
 27  6  1  0  0  0  0
 28 17  1  0  0  0  0
 29 32  1  0  0  0  0
 30 26  2  0  0  0  0
 31 26  1  0  0  0  0
 32 31  2  0  0  0  0
 33 30  1  0  0  0  0
 34 15  1  0  0  0  0
 35 29  1  0  0  0  0
 36 28  1  0  0  0  0
 37 35  1  0  0  0  0
 38 37  1  0  0  0  0
  8  3  1  0  0  0  0
 12 13  1  0  0  0  0
 33 29  2  0  0  0  0
M  CHG  2  11   1  16  -1
M  END
>  <Mol Weight>
550.5014

>  <Formula>
C23H31N6O8P

>  <chembl_id>
CHEMBL9900

$$$$

  Mrv0541 06201412482D          

 27 29  0  0  0  0            999 V2000
   12.2611  -16.4833    0.0000 N   0  0  0  0  0  0  0  0  0  0  0  0
   12.2599  -17.3107    0.0000 C   0  0  0  0  0  0  0  0  0  0  0  0
   12.9747  -17.7235    0.0000 N   0  0  0  0  0  0  0  0  0  0  0  0
   13.6912  -17.3102    0.0000 C   0  0  0  0  0  0  0  0  0  0  0  0
   13.6883  -16.4797    0.0000 N   0  0  0  0  0  0  0  0  0  0  0  0
   12.9729  -16.0705    0.0000 C   0  0  0  0  0  0  0  0  0  0  0  0
   12.9705  -15.2455    0.0000 N   0  0  0  0  0  0  0  0  0  0  0  0
   13.6837  -14.8309    0.0000 N   0  0  0  0  0  0  0  0  0  0  0  0
   14.3994  -15.2413    0.0000 C   0  0  0  0  0  0  0  0  0  0  0  0
   15.1126  -14.8266    0.0000 C   0  0  0  0  0  0  0  0  0  0  0  0
   15.8264  -15.2392    0.0000 C   0  0  0  0  0  0  0  0  0  0  0  0
   16.5391  -14.8253    0.0000 C   0  0  0  0  0  0  0  0  0  0  0  0
   16.5371  -13.9994    0.0000 C   0  0  0  0  0  0  0  0  0  0  0  0
   15.8164  -13.5892    0.0000 C   0  0  0  0  0  0  0  0  0  0  0  0
   15.1066  -14.0055    0.0000 C   0  0  0  0  0  0  0  0  0  0  0  0
   14.4063  -17.7216    0.0000 N   0  0  0  0  0  0  0  0  0  0  0  0
   14.4076  -18.5466    0.0000 C   0  0  0  0  0  0  0  0  0  0  0  0
   11.5451  -17.7226    0.0000 N   0  0  0  0  0  0  0  0  0  0  0  0
   15.8110  -12.7643    0.0000 I   0  0  0  0  0  0  0  0  0  0  0  0
   17.2546  -15.2360    0.0000 I   0  0  0  0  0  0  0  0  0  0  0  0
   15.8272  -16.0642    0.0000 O   0  0  0  0  0  0  0  0  0  0  0  0
   10.8347  -17.3050    0.0000 C   0  0  0  0  0  0  0  0  0  0  0  0
   10.1220  -17.7135    0.0000 C   0  0  0  0  0  0  0  0  0  0  0  0
   10.1171  -18.5388    0.0000 O   0  0  0  0  0  0  0  0  0  0  0  0
   10.8311  -18.9541    0.0000 C   0  0  0  0  0  0  0  0  0  0  0  0
   11.5500  -18.5440    0.0000 C   0  0  0  0  0  0  0  0  0  0  0  0
   15.1201  -17.3079    0.0000 C   0  0  0  0  0  0  0  0  0  0  0  0
  1  2  2  0  0  0  0
 13 14  1  0  0  0  0
  6  7  1  0  0  0  0
 14 15  2  0  0  0  0
 15 10  1  0  0  0  0
  3  4  2  0  0  0  0
  4 16  1  0  0  0  0
  7  8  1  0  0  0  0
 16 17  1  0  0  0  0
  2 18  1  0  0  0  0
  8  9  2  0  0  0  0
 14 19  1  0  0  0  0
  4  5  1  0  0  0  0
 12 20  1  0  0  0  0
  9 10  1  0  0  0  0
 11 21  1  0  0  0  0
 18 22  1  0  0  0  0
  2  3  1  0  0  0  0
 10 11  2  0  0  0  0
  5  6  2  0  0  0  0
 11 12  1  0  0  0  0
  6  1  1  0  0  0  0
 18 26  1  0  0  0  0
 22 23  1  0  0  0  0
 23 24  1  0  0  0  0
 24 25  1  0  0  0  0
 25 26  1  0  0  0  0
 12 13  2  0  0  0  0
 16 27  1  0  0  0  0
M  END
>  <Mol Weight>
595.1767

>  <Formula>
C16H19I2N7O2

>  <chembl_id>
CHEMBL1163299

$$$$

  Mrv0541 06201412482D          

 38 39  0  0  0  0            999 V2000
    4.9917   -4.9042    0.0000 C   0  0  0  0  0  0  0  0  0  0  0  0
    1.7292   -5.6417    0.0000 C   0  0  0  0  0  0  0  0  0  0  0  0
    7.2000   -2.3917    0.0000 C   0  0  0  0  0  0  0  0  0  0  0  0
    5.2500   -5.6917    0.0000 N   0  0  0  0  0  0  0  0  0  0  0  0
    1.4750   -6.4292    0.0000 N   0  0  0  0  0  0  0  0  0  0  0  0
    7.8667   -2.8792    0.0000 N   0  0  0  0  0  0  0  0  0  0  0  0
    2.5167   -5.3917    0.0000 C   0  0  0  0  0  0  0  0  0  0  0  0
    5.4792   -4.2417    0.0000 C   0  0  0  0  0  0  0  0  0  0  0  0
    3.9167   -5.6917    0.0000 C   0  0  0  0  0  0  0  0  0  0  0  0
    6.7875   -3.6625    0.0000 C   0  0  0  0  0  0  0  0  0  0  0  0
    4.1667   -4.9042    0.0000 C   0  0  0  0  0  0  0  0  0  0  0  0
    6.5292   -2.8792    0.0000 C   0  0  0  0  0  0  0  0  0  0  0  0
    1.0625   -5.1625    0.0000 C   0  0  0  0  0  0  0  0  0  0  0  0
    7.6042   -3.6667    0.0000 C   0  0  0  0  0  0  0  0  0  0  0  0
    4.5792   -6.1792    0.0000 C   0  0  0  0  0  0  0  0  0  0  0  0
    0.6500   -6.4292    0.0000 C   0  0  0  0  0  0  0  0  0  0  0  0
    6.3000   -4.3292    0.0000 N   0  0  0  0  0  0  0  0  0  0  0  0
    3.1292   -5.9417    0.0000 N   0  0  0  0  0  0  0  0  0  0  0  0
    0.4000   -5.6417    0.0000 C   0  0  0  0  0  0  0  0  0  0  0  0
    7.2000   -1.5667    0.0000 C   0  0  0  0  0  0  0  0  0  0  0  0
    8.6292    0.9083    0.0000 C   0  0  0  0  0  0  0  0  0  0  0  0
    8.6292    1.7333    0.0000 N   0  0  0  0  0  0  0  0  0  0  0  0
    9.4542    0.9083    0.0000 N   0  0  0  0  0  0  0  0  0  0  0  0
    5.1417   -3.4875    0.0000 O   0  0  0  0  0  0  0  0  0  0  0  0
    2.6917   -4.5875    0.0000 O   0  0  0  0  0  0  0  0  0  0  0  0
    8.6292    0.0833    0.0000 C   0  0  0  0  0  0  0  0  0  0  0  0
   -1.0000   -5.9417    0.0000 C   0  0  0  0  0  0  0  0  0  0  0  0
   -0.3833   -5.3917    0.0000 N   0  0  0  0  0  0  0  0  0  0  0  0
    6.4875   -1.1542    0.0000 O   0  0  0  0  0  0  0  0  0  0  0  0
    6.3375    1.7750    0.0000 Br  0  0  0  0  0  0  0  0  0  0  0  0
    7.9167   -1.1542    0.0000 N   0  0  0  0  0  0  0  0  0  0  0  0
   -0.8250   -6.7500    0.0000 O   0  0  0  0  0  0  0  0  0  0  0  0
    7.9167   -0.3292    0.0000 C   0  0  0  0  0  0  0  0  0  0  0  0
    6.0292   -5.9500    0.0000 C   0  0  0  0  0  0  0  0  0  0  0  0
    8.6500   -2.6292    0.0000 C   0  0  0  0  0  0  0  0  0  0  0  0
    1.9625   -7.1000    0.0000 C   0  0  0  0  0  0  0  0  0  0  0  0
    9.8667    0.1958    0.0000 C   0  0  0  0  0  0  0  0  0  0  0  0
    9.8667    1.6208    0.0000 C   0  0  0  0  0  0  0  0  0  0  0  0
  2  7  1  0  0  0  0
  3 12  2  0  0  0  0
  4  1  1  0  0  0  0
  5  2  1  0  0  0  0
  6 14  1  0  0  0  0
  7 18  1  0  0  0  0
  8  1  1  0  0  0  0
  9 11  1  0  0  0  0
 10 17  1  0  0  0  0
 11  1  2  0  0  0  0
 12 10  1  0  0  0  0
 13  2  2  0  0  0  0
 14 10  2  0  0  0  0
 15  4  1  0  0  0  0
 16  5  1  0  0  0  0
 17  8  1  0  0  0  0
 18  9  1  0  0  0  0
 19 13  1  0  0  0  0
 20  3  1  0  0  0  0
 21 26  1  0  0  0  0
 22 21  2  0  0  0  0
 23 21  1  0  0  0  0
 24  8  2  0  0  0  0
 25  7  2  0  0  0  0
 26 33  1  0  0  0  0
 27 28  1  0  0  0  0
 28 19  1  0  0  0  0
 29 20  2  0  0  0  0
 31 20  1  0  0  0  0
 32 27  2  0  0  0  0
 33 31  1  0  0  0  0
 34  4  1  0  0  0  0
 35  6  1  0  0  0  0
 36  5  1  0  0  0  0
 37 23  1  0  0  0  0
 38 23  1  0  0  0  0
  9 15  2  0  0  0  0
  6  3  1  0  0  0  0
 19 16  2  0  0  0  0
M  END
>  <Mol Weight>
590.473

>  <Formula>
C24H32BrN9O4

>  <chembl_id>
CHEMBL9703

$$$$

  Mrv0541 06201412482D          

 43 45  0  0  1  0            999 V2000
    2.4417   -1.3375    0.0000 C   0  0  0  0  0  0  0  0  0  0  0  0
    3.1542   -0.9167    0.0000 O   0  0  0  0  0  0  0  0  0  0  0  0
    6.0167   -0.9042    0.0000 N   0  0  0  0  0  0  0  0  0  0  0  0
    3.1667   -2.5667    0.0000 O   0  0  0  0  0  0  0  0  0  0  0  0
    6.7375   -2.1375    0.0000 C   0  0  0  0  0  0  0  0  0  0  0  0
    2.4417   -2.1625    0.0000 C   0  0  1  0  0  0  0  0  0  0  0  0
    6.7292   -1.3125    0.0000 C   0  0  1  0  0  0  0  0  0  0  0  0
    6.0042   -0.0792    0.0000 C   0  0  0  0  0  0  0  0  0  0  0  0
    3.8792   -2.1542    0.0000 C   0  0  0  0  0  0  0  0  0  0  0  0
    6.0250   -2.5542    0.0000 N   0  0  0  0  0  0  0  0  0  0  0  0
    3.1542   -0.0917    0.0000 C   0  0  2  0  0  0  0  0  0  0  0  0
    1.7292   -0.9250    0.0000 O   0  0  0  0  0  0  0  0  0  0  0  0
    5.2917    0.3333    0.0000 C   0  0  0  0  0  0  0  0  0  0  0  0
    7.4417   -0.8917    0.0000 C   0  0  0  0  0  0  0  0  0  0  0  0
    4.5917   -2.5625    0.0000 C   0  0  0  0  0  0  0  0  0  0  0  0
    7.4542   -2.5417    0.0000 O   0  0  0  0  0  0  0  0  0  0  0  0
    4.5792   -0.0875    0.0000 C   0  0  0  0  0  0  0  0  0  0  0  0
    1.7375   -2.5750    0.0000 C   0  0  0  0  0  0  0  0  0  0  0  0
    6.7167    0.3375    0.0000 O   0  0  0  0  0  0  0  0  0  0  0  0
    3.8750   -1.3292    0.0000 O   0  0  0  0  0  0  0  0  0  0  0  0
    2.4375    0.3125    0.0000 C   0  0  0  0  0  0  0  0  0  0  0  0
    1.7250   -0.1042    0.0000 C   0  0  0  0  0  0  0  0  0  0  0  0
    5.3042   -2.1417    0.0000 C   0  0  0  0  0  0  0  0  0  0  0  0
    8.1542   -1.3042    0.0000 C   0  0  0  0  0  0  0  0  0  0  0  0
    9.5917   -2.1167    0.0000 C   0  0  0  0  0  0  0  0  0  0  0  0
    1.0042    0.3083    0.0000 C   0  0  0  0  0  0  0  0  0  0  0  0
    3.8625    0.3208    0.0000 C   0  0  0  0  0  0  0  0  0  0  0  0
    8.8667   -0.8875    0.0000 C   0  0  0  0  0  0  0  0  0  0  0  0
    8.1625   -2.1292    0.0000 C   0  0  0  0  0  0  0  0  0  0  0  0
    8.8792   -2.5375    0.0000 C   0  0  0  0  0  0  0  0  0  0  0  0
    9.5792   -1.2917    0.0000 C   0  0  0  0  0  0  0  0  0  0  0  0
    2.4292    1.1375    0.0000 O   0  0  0  0  0  0  0  0  0  0  0  0
    0.2917   -0.1042    0.0000 C   0  0  0  0  0  0  0  0  0  0  0  0
   10.3042   -2.5292    0.0000 O   0  0  0  0  0  0  0  0  0  0  0  0
    1.7417   -3.4000    0.0000 C   0  0  0  0  0  0  0  0  0  0  0  0
    0.3042   -0.9292    0.0000 C   0  0  0  0  0  0  0  0  0  0  0  0
   -0.4208    0.3000    0.0000 C   0  0  0  0  0  0  0  0  0  0  0  0
   10.3125   -3.3542    0.0000 C   0  0  0  0  0  0  0  0  0  0  0  0
    1.0292   -3.8167    0.0000 C   0  0  0  0  0  0  0  0  0  0  0  0
    2.4542   -3.8042    0.0000 C   0  0  0  0  0  0  0  0  0  0  0  0
   -1.1333   -0.1167    0.0000 C   0  0  0  0  0  0  0  0  0  0  0  0
   -0.4083   -1.3500    0.0000 C   0  0  0  0  0  0  0  0  0  0  0  0
   -1.1250   -0.9417    0.0000 C   0  0  0  0  0  0  0  0  0  0  0  0
  2  1  1  0  0  0  0
  3  8  1  0  0  0  0
  4  6  1  0  0  0  0
  5 10  1  0  0  0  0
  6  1  1  0  0  0  0
  7  5  1  0  0  0  0
  8 13  1  0  0  0  0
  9  4  1  0  0  0  0
 10 23  1  0  0  0  0
 11  2  1  0  0  0  0
 12  1  2  0  0  0  0
 13 17  2  0  0  0  0
  7 14  1  6  0  0  0
 15  9  1  0  0  0  0
 16  5  2  0  0  0  0
 17 27  1  0  0  0  0
  6 18  1  1  0  0  0
 19  8  2  0  0  0  0
 20  9  2  0  0  0  0
 11 21  1  6  0  0  0
 22 21  1  0  0  0  0
 23 15  1  0  0  0  0
 24 14  1  0  0  0  0
 25 30  2  0  0  0  0
 26 22  1  0  0  0  0
 27 11  1  0  0  0  0
 28 24  1  0  0  0  0
 29 24  2  0  0  0  0
 30 29  1  0  0  0  0
 31 28  2  0  0  0  0
 32 21  1  0  0  0  0
 33 26  1  0  0  0  0
 34 25  1  0  0  0  0
 35 18  1  0  0  0  0
 36 33  1  0  0  0  0
 37 33  2  0  0  0  0
 38 34  1  0  0  0  0
 39 35  1  0  0  0  0
 40 35  1  0  0  0  0
 41 37  1  0  0  0  0
 42 36  2  0  0  0  0
 43 41  2  0  0  0  0
  7  3  1  0  0  0  0
 43 42  1  0  0  0  0
 25 31  1  0  0  0  0
M  END
>  <Mol Weight>
594.6952

>  <Formula>
C33H42N2O8

>  <chembl_id>
CHEMBL9899

$$$$

  Mrv0541 06201412482D          

 42 46  0  0  0  0            999 V2000
    4.7598   -1.1816    0.0000 C   0  0  0  0  0  0  0  0  0  0  0  0
    4.0376   -0.7641    0.0000 C   0  0  0  0  0  0  0  0  0  0  0  0
    4.7598   -2.0209    0.0000 C   0  0  0  0  0  0  0  0  0  0  0  0
    5.4780   -0.7766    0.0000 C   0  0  0  0  0  0  0  0  0  0  0  0
    4.0333   -2.4342    0.0000 N   0  0  0  0  0  0  0  0  0  0  0  0
    3.3194   -1.1816    0.0000 C   0  0  0  0  0  0  0  0  0  0  0  0
    3.3110   -2.0209    0.0000 C   0  0  0  0  0  0  0  0  0  0  0  0
    6.1920   -1.1900    0.0000 N   0  0  0  0  0  0  0  0  0  0  0  0
    2.5971   -2.4300    0.0000 C   0  0  0  0  0  0  0  0  0  0  0  0
    1.8831   -2.0167    0.0000 C   0  0  0  0  0  0  0  0  0  0  0  0
    1.1691   -2.4300    0.0000 C   0  0  0  0  0  0  0  0  0  0  0  0
    2.5971   -0.7683    0.0000 C   0  0  0  0  0  0  0  0  0  0  0  0
    0.4551   -2.0084    0.0000 C   0  0  0  0  0  0  0  0  0  0  0  0
    5.4738   -2.4342    0.0000 O   0  0  0  0  0  0  0  0  0  0  0  0
    5.4780    0.0501    0.0000 O   0  0  0  0  0  0  0  0  0  0  0  0
   14.7597    0.4467    0.0000 C   0  0  0  0  0  0  0  0  0  0  0  0
   -0.2630   -2.4217    0.0000 C   0  0  0  0  0  0  0  0  0  0  0  0
    1.8914   -1.1900    0.0000 C   0  0  0  0  0  0  0  0  0  0  0  0
    4.0376    0.0626    0.0000 O   0  0  0  0  0  0  0  0  0  0  0  0
    1.1691   -3.2484    0.0000 C   0  0  0  0  0  0  0  0  0  0  0  0
   14.7597    1.2734    0.0000 O   0  0  0  0  0  0  0  0  0  0  0  0
   -0.2630   -3.2484    0.0000 C   0  0  0  0  0  0  0  0  0  0  0  0
    0.4509   -3.6618    0.0000 C   0  0  0  0  0  0  0  0  0  0  0  0
    6.9060   -0.7766    0.0000 C   0  0  0  0  0  0  0  0  0  0  0  0
    8.3339    0.0459    0.0000 C   0  0  0  0  0  0  0  0  0  0  0  0
   15.4737    0.0334    0.0000 O   0  0  0  0  0  0  0  0  0  0  0  0
    7.6200   -1.1942    0.0000 C   0  0  0  0  0  0  0  0  0  0  0  0
    6.9060    0.0459    0.0000 C   0  0  0  0  0  0  0  0  0  0  0  0
    7.6200    0.4592    0.0000 C   0  0  0  0  0  0  0  0  0  0  0  0
    8.3339   -0.7808    0.0000 C   0  0  0  0  0  0  0  0  0  0  0  0
    9.0562    0.4592    0.0000 O   0  0  0  0  0  0  0  0  0  0  0  0
   14.0541    0.0334    0.0000 C   0  0  0  0  0  0  0  0  0  0  0  0
   -0.9770   -2.0084    0.0000 C   0  0  0  0  0  0  0  0  0  0  0  0
   -0.9853   -3.6618    0.0000 C   0  0  0  0  0  0  0  0  0  0  0  0
    9.7702    0.0459    0.0000 C   0  0  0  0  0  0  0  0  0  0  0  0
   13.3401    0.4467    0.0000 C   0  0  0  0  0  0  0  0  0  0  0  0
   10.4759    0.4509    0.0000 C   0  0  0  0  0  0  0  0  0  0  0  0
   12.6261    0.0334    0.0000 C   0  0  0  0  0  0  0  0  0  0  0  0
   11.1982    0.0376    0.0000 C   0  0  0  0  0  0  0  0  0  0  0  0
   11.9121    0.4467    0.0000 C   0  0  0  0  0  0  0  0  0  0  0  0
   -1.6993   -2.4217    0.0000 C   0  0  0  0  0  0  0  0  0  0  0  0
   -1.6993   -3.2484    0.0000 C   0  0  0  0  0  0  0  0  0  0  0  0
  2  1  2  0  0  0  0
  3  1  1  0  0  0  0
  4  1  1  0  0  0  0
  5  3  2  0  0  0  0
  6  2  1  0  0  0  0
  7  5  1  0  0  0  0
  8  4  1  0  0  0  0
  9  7  2  0  0  0  0
 10  9  1  0  0  0  0
 11 10  1  0  0  0  0
 12  6  2  0  0  0  0
 13 11  2  0  0  0  0
 14  3  1  0  0  0  0
 15  4  2  0  0  0  0
 16 32  1  0  0  0  0
 17 13  1  0  0  0  0
 18 12  1  0  0  0  0
 19  2  1  0  0  0  0
 20 11  1  0  0  0  0
 21 16  2  0  0  0  0
 22 23  1  0  0  0  0
 23 20  2  0  0  0  0
 24  8  1  0  0  0  0
 25 29  1  0  0  0  0
 26 16  1  0  0  0  0
 27 24  2  0  0  0  0
 28 24  1  0  0  0  0
 29 28  2  0  0  0  0
 30 27  1  0  0  0  0
 31 25  1  0  0  0  0
 32 36  1  0  0  0  0
 33 17  2  0  0  0  0
 34 22  2  0  0  0  0
 35 31  1  0  0  0  0
 36 38  1  0  0  0  0
 37 35  1  0  0  0  0
 38 40  1  0  0  0  0
 39 37  1  0  0  0  0
 40 39  1  0  0  0  0
 41 33  1  0  0  0  0
 42 34  1  0  0  0  0
  7  6  1  0  0  0  0
 10 18  2  0  0  0  0
 25 30  2  0  0  0  0
 22 17  1  0  0  0  0
 41 42  2  0  0  0  0
M  END
>  <Mol Weight>
564.6277

>  <Formula>
C34H32N2O6

>  <chembl_id>
CHEMBL9867

$$$$

  Mrv0541 06201412482D          

 42 45  0  0  0  0            999 V2000
   -5.3916  -20.4510    0.0000 C   0  0  0  0  0  0  0  0  0  0  0  0
   -5.3929  -21.2787    0.0000 C   0  0  0  0  0  0  0  0  0  0  0  0
   -4.6799  -21.6916    0.0000 C   0  0  0  0  0  0  0  0  0  0  0  0
   -3.9606  -21.2781    0.0000 C   0  0  0  0  0  0  0  0  0  0  0  0
   -3.9638  -20.4471    0.0000 C   0  0  0  0  0  0  0  0  0  0  0  0
   -4.6819  -20.0383    0.0000 C   0  0  0  0  0  0  0  0  0  0  0  0
   -6.1079  -21.6902    0.0000 O   0  0  0  0  0  0  0  0  0  0  0  0
   -3.2513  -20.0311    0.0000 C   0  0  0  0  0  0  0  0  0  0  0  0
   -2.5348  -20.4400    0.0000 O   0  0  0  0  0  0  0  0  0  0  0  0
   -3.2554  -19.2060    0.0000 O   0  0  0  0  0  0  0  0  0  0  0  0
   -1.8224  -20.0239    0.0000 C   0  0  0  0  0  0  0  0  0  0  0  0
   -1.1058  -20.4329    0.0000 C   0  0  0  0  0  0  0  0  0  0  0  0
   -1.1034  -21.2589    0.0000 C   0  0  0  0  0  0  0  0  0  0  0  0
   -0.3878  -21.6678    0.0000 C   0  0  0  0  0  0  0  0  0  0  0  0
    0.3257  -21.2516    0.0000 C   0  0  0  0  0  0  0  0  0  0  0  0
    0.3189  -20.4224    0.0000 C   0  0  0  0  0  0  0  0  0  0  0  0
   -0.3973  -20.0173    0.0000 C   0  0  0  0  0  0  0  0  0  0  0  0
    1.0298  -20.0039    0.0000 C   0  0  0  0  0  0  0  0  0  0  0  0
    1.7478  -20.4103    0.0000 O   0  0  0  0  0  0  0  0  0  0  0  0
    2.4588  -19.9918    0.0000 C   0  0  0  0  0  0  0  0  0  0  0  0
    3.1767  -20.3981    0.0000 C   0  0  0  0  0  0  0  0  0  0  0  0
    2.4518  -19.1668    0.0000 O   0  0  0  0  0  0  0  0  0  0  0  0
    3.1806  -21.2224    0.0000 C   0  0  0  0  0  0  0  0  0  0  0  0
    3.8977  -21.6287    0.0000 C   0  0  0  0  0  0  0  0  0  0  0  0
    4.6096  -21.2102    0.0000 C   0  0  0  0  0  0  0  0  0  0  0  0
    4.5999  -20.3809    0.0000 C   0  0  0  0  0  0  0  0  0  0  0  0
    3.8823  -19.9783    0.0000 C   0  0  0  0  0  0  0  0  0  0  0  0
    5.3281  -21.6156    0.0000 O   0  0  0  0  0  0  0  0  0  0  0  0
   -0.3840  -22.4928    0.0000 C   0  0  0  0  0  0  0  0  0  0  0  0
   -1.0967  -22.9085    0.0000 O   0  0  0  0  0  0  0  0  0  0  0  0
   -1.8130  -22.4992    0.0000 C   0  0  0  0  0  0  0  0  0  0  0  0
   -2.5256  -22.9149    0.0000 C   0  0  0  0  0  0  0  0  0  0  0  0
   -1.8167  -21.6742    0.0000 O   0  0  0  0  0  0  0  0  0  0  0  0
   -3.2397  -22.5038    0.0000 C   0  0  0  0  0  0  0  0  0  0  0  0
   -3.9518  -22.9188    0.0000 C   0  0  0  0  0  0  0  0  0  0  0  0
   -3.9485  -23.7447    0.0000 C   0  0  0  0  0  0  0  0  0  0  0  0
   -3.2272  -24.1538    0.0000 C   0  0  0  0  0  0  0  0  0  0  0  0
   -2.5180  -23.7365    0.0000 C   0  0  0  0  0  0  0  0  0  0  0  0
   -4.6607  -24.1614    0.0000 O   0  0  0  0  0  0  0  0  0  0  0  0
   -6.1065  -20.0392    0.0000 F   0  0  0  0  0  0  0  0  0  0  0  0
   -4.6679  -22.5092    0.0000 F   0  0  0  0  0  0  0  0  0  0  0  0
    5.3094  -19.9599    0.0000 F   0  0  0  0  0  0  0  0  0  0  0  0
  8 10  2  0  0  0  0
 20 21  1  0  0  0  0
  2  3  1  0  0  0  0
 20 22  2  0  0  0  0
  9 11  1  0  0  0  0
 21 23  2  0  0  0  0
  5  6  2  0  0  0  0
 23 24  1  0  0  0  0
 11 12  1  0  0  0  0
 24 25  2  0  0  0  0
  6  1  1  0  0  0  0
 25 26  1  0  0  0  0
 12 13  2  0  0  0  0
 26 27  2  0  0  0  0
 27 21  1  0  0  0  0
  1  2  2  0  0  0  0
 25 28  1  0  0  0  0
 13 14  1  0  0  0  0
 14 29  1  0  0  0  0
  2  7  1  0  0  0  0
 29 30  1  0  0  0  0
 14 15  2  0  0  0  0
 30 31  1  0  0  0  0
  3  4  2  0  0  0  0
 31 32  1  0  0  0  0
 15 16  1  0  0  0  0
 31 33  2  0  0  0  0
  5  8  1  0  0  0  0
 32 34  2  0  0  0  0
 16 17  2  0  0  0  0
 34 35  1  0  0  0  0
 17 12  1  0  0  0  0
 35 36  2  0  0  0  0
 36 37  1  0  0  0  0
 16 18  1  0  0  0  0
 37 38  2  0  0  0  0
 38 32  1  0  0  0  0
  8  9  1  0  0  0  0
 36 39  1  0  0  0  0
 18 19  1  0  0  0  0
  1 40  1  0  0  0  0
  4  5  1  0  0  0  0
 35 41  1  0  0  0  0
 19 20  1  0  0  0  0
 26 42  1  0  0  0  0
M  END
>  <Mol Weight>
582.4775

>  <Formula>
C30H21F3O9

>  <chembl_id>
CHEMBL1163276

$$$$

  Mrv0541 06201412482D          

 42 45  0  0  0  0            999 V2000
    1.4143  -18.1205    0.0000 C   0  0  0  0  0  0  0  0  0  0  0  0
    2.2393  -18.1205    0.0000 C   0  0  0  0  0  0  0  0  0  0  0  0
    1.0018  -18.8350    0.0000 C   0  0  0  0  0  0  0  0  0  0  0  0
    2.6518  -18.8350    0.0000 C   0  0  0  0  0  0  0  0  0  0  0  0
    3.4768  -18.8350    0.0000 O   0  0  0  0  0  0  0  0  0  0  0  0
    2.2393  -19.5495    0.0000 O   0  0  0  0  0  0  0  0  0  0  0  0
    0.1768  -18.8350    0.0000 O   0  0  0  0  0  0  0  0  0  0  0  0
    1.4143  -19.5495    0.0000 O   0  0  0  0  0  0  0  0  0  0  0  0
    9.7294  -21.3185    0.0000 C   0  0  0  0  0  0  0  0  0  0  0  0
   10.4349  -21.8911    0.0000 N   0  0  0  0  0  0  0  0  0  0  0  0
    2.6109  -22.6378    0.0000 C   0  0  0  0  0  0  0  0  0  0  0  0
    2.6109  -21.8132    0.0000 C   0  0  0  0  0  0  0  0  0  0  0  0
    4.0310  -21.8132    0.0000 C   0  0  0  0  0  0  0  0  0  0  0  0
    8.9645  -21.8132    0.0000 N   0  0  0  0  0  0  0  0  0  0  0  0
    3.3164  -23.0500    0.0000 C   0  0  0  0  0  0  0  0  0  0  0  0
    4.8143  -21.3597    0.0000 N   0  0  0  0  0  0  0  0  0  0  0  0
    4.0310  -22.6378    0.0000 C   0  0  0  0  0  0  0  0  0  0  0  0
   10.1051  -22.7340    0.0000 C   0  0  0  0  0  0  0  0  0  0  0  0
    6.6145  -21.3597    0.0000 N   0  0  0  0  0  0  0  0  0  0  0  0
    1.9009  -21.4010    0.0000 C   0  0  0  0  0  0  0  0  0  0  0  0
    9.7753  -20.4115    0.0000 O   0  0  0  0  0  0  0  0  0  0  0  0
    3.3164  -23.8746    0.0000 C   0  0  0  0  0  0  0  0  0  0  0  0
    1.9009  -23.0500    0.0000 C   0  0  0  0  0  0  0  0  0  0  0  0
    9.1981  -22.6881    0.0000 C   0  0  0  0  0  0  0  0  0  0  0  0
    8.1812  -21.3597    0.0000 C   0  0  0  0  0  0  0  0  0  0  0  0
    5.2678  -20.5764    0.0000 C   0  0  0  0  0  0  0  0  0  0  0  0
    5.2678  -22.1430    0.0000 C   0  0  0  0  0  0  0  0  0  0  0  0
   11.3007  -21.6574    0.0000 C   0  0  0  0  0  0  0  0  0  0  0  0
    2.6018  -24.2869    0.0000 C   0  0  0  0  0  0  0  0  0  0  0  0
    4.0310  -24.2869    0.0000 C   0  0  0  0  0  0  0  0  0  0  0  0
    7.3978  -21.8132    0.0000 C   0  0  0  0  0  0  0  0  0  0  0  0
    6.1610  -22.1430    0.0000 C   0  0  0  0  0  0  0  0  0  0  0  0
    6.1701  -20.5764    0.0000 C   0  0  0  0  0  0  0  0  0  0  0  0
    1.1863  -22.6378    0.0000 C   0  0  0  0  0  0  0  0  0  0  0  0
    1.1863  -21.8132    0.0000 C   0  0  0  0  0  0  0  0  0  0  0  0
    2.6018  -25.1114    0.0000 C   0  0  0  0  0  0  0  0  0  0  0  0
    4.0310  -25.1068    0.0000 C   0  0  0  0  0  0  0  0  0  0  0  0
    3.3164  -25.5237    0.0000 C   0  0  0  0  0  0  0  0  0  0  0  0
    0.4717  -23.0500    0.0000 Cl  0  0  0  0  0  0  0  0  0  0  0  0
   11.5480  -20.7825    0.0000 C   0  0  0  0  0  0  0  0  0  0  0  0
   11.9466  -22.2942    0.0000 C   0  0  0  0  0  0  0  0  0  0  0  0
    3.3164  -26.3482    0.0000 C   0  0  0  0  0  0  0  0  0  0  0  0
  1  2  2  0  0  0  0
  1  3  1  0  0  0  0
  2  4  1  0  0  0  0
  4  5  2  0  0  0  0
  4  6  1  0  0  0  0
  3  7  1  0  0  0  0
  3  8  2  0  0  0  0
 10  9  1  0  0  0  0
 11 12  2  0  0  0  0
 12 13  1  0  0  0  0
 13 16  1  0  0  0  0
 14  9  1  0  0  0  0
 15 17  1  0  0  0  0
 16 26  1  0  0  0  0
 17 13  1  0  0  0  0
 18 10  1  0  0  0  0
 19 31  1  0  0  0  0
 20 12  1  0  0  0  0
 21  9  2  0  0  0  0
 22 15  1  0  0  0  0
 23 11  1  0  0  0  0
 24 14  1  0  0  0  0
 25 14  1  0  0  0  0
 26 33  1  0  0  0  0
 27 32  1  0  0  0  0
 28 10  1  0  0  0  0
 29 22  2  0  0  0  0
 30 22  1  0  0  0  0
 31 25  1  0  0  0  0
 32 19  1  0  0  0  0
 33 19  1  0  0  0  0
 34 35  1  0  0  0  0
 35 20  2  0  0  0  0
 36 29  1  0  0  0  0
 37 30  2  0  0  0  0
 38 37  1  0  0  0  0
 39 34  1  0  0  0  0
 40 28  1  0  0  0  0
 41 28  1  0  0  0  0
 42 38  1  0  0  0  0
 18 24  1  0  0  0  0
 27 16  1  0  0  0  0
 15 11  1  0  0  0  0
 23 34  2  0  0  0  0
 38 36  2  0  0  0  0
M  END
>  <Mol Weight>
597.145

>  <Formula>
C32H41ClN4O5

>  <chembl_id>
CHEMBL1744108

$$$$

  Mrv0541 06201412482D          

 43 47  0  0  1  0            999 V2000
   15.6266   -0.5950    0.0000 C   0  0  0  0  0  0  0  0  0  0  0  0
   14.9114   -1.0063    0.0000 C   0  0  1  0  0  0  0  0  0  0  0  0
   14.1899   -0.6076    0.0000 C   0  0  2  0  0  0  0  0  0  0  0  0
   16.3481   -0.2089    0.0000 O   0  0  0  0  0  0  0  0  0  0  0  0
   15.6266    0.2278    0.0000 C   0  0  2  0  0  0  0  0  0  0  0  0
   14.1899    0.2278    0.0000 C   0  0  2  0  0  0  0  0  0  0  0  0
   16.8038   -1.0127    0.0000 C   0  0  2  0  0  0  0  0  0  0  0  0
   15.0000   -0.1709    0.0000 C   0  0  0  0  0  0  0  0  0  0  0  0
   14.9051    0.6456    0.0000 O   0  0  0  0  0  0  0  0  0  0  0  0
   13.4810   -1.0127    0.0000 C   0  0  0  0  0  0  0  0  0  0  0  0
   17.3798   -1.6139    0.0000 O   0  0  0  0  0  0  0  0  0  0  0  0
   16.8607    0.2278    0.0000 C   0  0  0  0  0  0  0  0  0  0  0  0
   14.1899   -2.0950    0.0000 C   0  0  0  0  0  0  0  0  0  0  0  0
   17.0380   -6.2912    0.0000 O   0  0  0  0  0  0  0  0  0  0  0  0
   18.0949   -1.1962    0.0000 C   0  0  0  0  0  0  0  0  0  0  0  0
   14.9240   -2.5633    0.0000 O   0  0  0  0  0  0  0  0  0  0  0  0
   14.9240   -3.3861    0.0000 C   0  0  0  0  0  0  0  0  0  0  0  0
   13.4810    0.6392    0.0000 C   0  0  0  0  0  0  0  0  0  0  0  0
   16.3291   -5.8735    0.0000 C   0  0  2  0  0  0  0  0  0  0  0  0
   12.7659   -0.6076    0.0000 C   0  0  2  0  0  0  0  0  0  0  0  0
   17.7531   -5.8735    0.0000 C   0  0  0  0  0  0  0  0  0  0  0  0
   12.7659    0.2278    0.0000 C   0  0  2  0  0  0  0  0  0  0  0  0
   18.8164   -1.5949    0.0000 C   0  0  0  0  0  0  0  0  0  0  0  0
   18.1013   -3.8988    0.0000 C   0  0  0  0  0  0  0  0  0  0  0  0
   18.0823   -0.3608    0.0000 O   0  0  0  0  0  0  0  0  0  0  0  0
   14.1899   -3.7975    0.0000 O   0  0  0  0  0  0  0  0  0  0  0  0
   18.8164   -2.4304    0.0000 C   0  0  0  0  0  0  0  0  0  0  0  0
   18.1139   -2.8481    0.0000 C   0  0  0  0  0  0  0  0  0  0  0  0
   15.6266   -3.8038    0.0000 C   0  0  0  0  0  0  0  0  0  0  0  0
   16.3291   -5.0506    0.0000 C   0  0  0  0  0  0  0  0  0  0  0  0
   14.9051   -1.8292    0.0000 C   0  0  0  0  0  0  0  0  0  0  0  0
   15.6266   -4.6329    0.0000 C   0  0  0  0  0  0  0  0  0  0  0  0
   18.4241   -6.3418    0.0000 C   0  0  0  0  0  0  0  0  0  0  0  0
   15.5950   -6.2722    0.0000 O   0  0  0  0  0  0  0  0  0  0  0  0
   11.9430   -0.6076    0.0000 O   0  0  0  0  0  0  0  0  0  0  0  0
   18.3481   -7.1646    0.0000 O   0  0  0  0  0  0  0  0  0  0  0  0
   11.9430    0.2278    0.0000 C   0  0  0  0  0  0  0  0  0  0  0  0
   14.8291   -5.0760    0.0000 C   0  0  0  0  0  0  0  0  0  0  0  0
   19.1772   -6.0000    0.0000 C   0  0  0  0  0  0  0  0  0  0  0  0
   12.3787   -2.0765    0.0000 H   0  0  0  0  0  0  0  0  0  0  0  0
   16.0206    1.6949    0.0000 H   0  0  0  0  0  0  0  0  0  0  0  0
   14.1878    1.7468    0.0000 H   0  0  0  0  0  0  0  0  0  0  0  0
   18.2259   -0.4789    0.0000 H   0  0  0  0  0  0  0  0  0  0  0  0
  2  1  1  0  0  0  0
  3  2  1  0  0  0  0
  4  1  1  0  0  0  0
  5  1  1  0  0  0  0
  6  9  1  0  0  0  0
  7  2  1  0  0  0  0
  8  1  1  0  0  0  0
  9  5  1  0  0  0  0
  3 10  1  1  0  0  0
  7 11  1  0  0  0  0
 12  5  1  0  0  0  0
  3 13  1  0  0  0  0
 14 21  1  0  0  0  0
 15 11  1  0  0  0  0
 16 13  1  0  0  0  0
 17 16  1  0  0  0  0
 18  6  1  0  0  0  0
 19 30  1  0  0  0  0
 20 10  1  0  0  0  0
 21 24  1  0  0  0  0
 22 18  1  0  0  0  0
 23 15  1  0  0  0  0
 24 28  2  0  0  0  0
 25 15  2  0  0  0  0
 26 17  2  0  0  0  0
 27 23  2  0  0  0  0
 28 27  1  0  0  0  0
 29 17  1  0  0  0  0
 30 32  1  0  0  0  0
  2 31  1  1  0  0  0
 32 29  1  0  0  0  0
 33 21  1  0  0  0  0
 19 34  1  1  0  0  0
 20 35  1  0  0  0  0
 36 33  1  0  0  0  0
 22 37  1  6  0  0  0
 38 32  1  0  0  0  0
 39 33  1  0  0  0  0
 20 40  1  6  0  0  0
  5 41  1  1  0  0  0
  6 42  1  6  0  0  0
  4  8  1  0  0  0  0
  7 12  1  0  0  0  0
  6  3  1  0  0  0  0
 20 22  1  0  0  0  0
 14 19  1  0  0  0  0
  7 43  1  6  0  0  0
M  END
>  <Mol Weight>
550.6378

>  <Formula>
C29H42O10

>  <chembl_id>
CHEMBL9712

$$$$

  Mrv0541 06201412482D          

 41 44  0  0  0  0            999 V2000
    2.7730   -1.9823    0.0000 C   0  0  0  0  0  0  0  0  0  0  0  0
    2.7558   -1.1687    0.0000 C   0  0  0  0  0  0  0  0  0  0  0  0
    2.0511   -2.4063    0.0000 N   0  0  0  0  0  0  0  0  0  0  0  0
    1.3464   -1.1687    0.0000 N   0  0  0  0  0  0  0  0  0  0  0  0
    1.3464   -1.9938    0.0000 C   0  0  0  0  0  0  0  0  0  0  0  0
    3.5464   -2.2402    0.0000 N   0  0  0  0  0  0  0  0  0  0  0  0
    2.0511   -0.7563    0.0000 C   0  0  0  0  0  0  0  0  0  0  0  0
    3.5464   -0.9109    0.0000 N   0  0  0  0  0  0  0  0  0  0  0  0
    4.0276   -1.5698    0.0000 C   0  0  0  0  0  0  0  0  0  0  0  0
    4.8526   -1.5698    0.0000 C   0  0  0  0  0  0  0  0  0  0  0  0
    0.6245   -2.3948    0.0000 O   0  0  0  0  0  0  0  0  0  0  0  0
    2.0453    0.0688    0.0000 O   0  0  0  0  0  0  0  0  0  0  0  0
   11.4355   -4.4230    0.0000 C   0  0  0  0  0  0  0  0  0  0  0  0
    8.5651   -2.2745    0.0000 C   0  0  0  0  0  0  0  0  0  0  0  0
    2.0511   -3.2313    0.0000 C   0  0  0  0  0  0  0  0  0  0  0  0
   11.0172   -5.1391    0.0000 O   0  0  0  0  0  0  0  0  0  0  0  0
    8.9777   -1.5527    0.0000 O   0  0  0  0  0  0  0  0  0  0  0  0
    0.6245   -0.7563    0.0000 C   0  0  0  0  0  0  0  0  0  0  0  0
    5.2652   -2.2859    0.0000 C   0  0  0  0  0  0  0  0  0  0  0  0
    5.2594   -0.8594    0.0000 C   0  0  0  0  0  0  0  0  0  0  0  0
   12.2605   -4.4230    0.0000 C   0  0  0  0  0  0  0  0  0  0  0  0
   11.0230   -3.7011    0.0000 N   0  0  0  0  0  0  0  0  0  0  0  0
    8.9719   -2.9792    0.0000 N   0  0  0  0  0  0  0  0  0  0  0  0
    7.3277   -1.5641    0.0000 O   0  0  0  0  0  0  0  0  0  0  0  0
    7.7401   -2.2745    0.0000 C   0  0  0  0  0  0  0  0  0  0  0  0
    6.5027   -1.5698    0.0000 C   0  0  0  0  0  0  0  0  0  0  0  0
   12.6672   -5.1448    0.0000 C   0  0  0  0  0  0  0  0  0  0  0  0
   13.5839   -6.5198    0.0000 C   0  0  0  0  0  0  0  0  0  0  0  0
   14.0308   -7.2073    0.0000 N   0  0  0  0  0  0  0  0  0  0  0  0
    6.0902   -2.2859    0.0000 C   0  0  0  0  0  0  0  0  0  0  0  0
    6.0844   -0.8480    0.0000 C   0  0  0  0  0  0  0  0  0  0  0  0
   12.7589   -6.5656    0.0000 C   0  0  0  0  0  0  0  0  0  0  0  0
   13.9448   -5.7808    0.0000 C   0  0  0  0  0  0  0  0  0  0  0  0
   12.3063   -5.8839    0.0000 C   0  0  0  0  0  0  0  0  0  0  0  0
   13.4980   -5.0933    0.0000 C   0  0  0  0  0  0  0  0  0  0  0  0
    9.7969   -2.9792    0.0000 C   0  0  0  0  0  0  0  0  0  0  0  0
   10.1980   -3.7011    0.0000 C   0  0  0  0  0  0  0  0  0  0  0  0
    1.3406   -3.6437    0.0000 C   0  0  0  0  0  0  0  0  0  0  0  0
   -0.0859   -1.1687    0.0000 C   0  0  0  0  0  0  0  0  0  0  0  0
    1.3406   -4.4688    0.0000 C   0  0  0  0  0  0  0  0  0  0  0  0
   -0.8020   -0.7563    0.0000 C   0  0  0  0  0  0  0  0  0  0  0  0
  2  1  2  0  0  0  0
  3  1  1  0  0  0  0
  4  5  1  0  0  0  0
  5  3  1  0  0  0  0
  6  1  1  0  0  0  0
  7  2  1  0  0  0  0
  8  2  1  0  0  0  0
  9  6  1  0  0  0  0
 10  9  1  0  0  0  0
 11  5  2  0  0  0  0
 12  7  2  0  0  0  0
 13 22  1  0  0  0  0
 14 25  1  0  0  0  0
 15  3  1  0  0  0  0
 16 13  2  0  0  0  0
 17 14  2  0  0  0  0
 18  4  1  0  0  0  0
 19 10  2  0  0  0  0
 20 10  1  0  0  0  0
 21 13  1  0  0  0  0
 22 37  1  0  0  0  0
 23 14  1  0  0  0  0
 24 26  1  0  0  0  0
 25 24  1  0  0  0  0
 26 31  1  0  0  0  0
 27 21  1  0  0  0  0
 28 33  1  0  0  0  0
 29 28  1  0  0  0  0
 30 19  1  0  0  0  0
 31 20  2  0  0  0  0
 32 34  1  0  0  0  0
 33 35  2  0  0  0  0
 34 27  2  0  0  0  0
 35 27  1  0  0  0  0
 36 23  1  0  0  0  0
 37 36  1  0  0  0  0
 38 15  1  0  0  0  0
 39 18  1  0  0  0  0
 40 38  1  0  0  0  0
 41 39  1  0  0  0  0
  9  8  2  0  0  0  0
  4  7  1  0  0  0  0
 30 26  2  0  0  0  0
 32 28  2  0  0  0  0
M  END
>  <Mol Weight>
561.6321

>  <Formula>
C29H35N7O5

>  <chembl_id>
CHEMBL9493

$$$$

  Mrv0541 06201412482D          

 37 38  0  0  0  0            999 V2000
    4.9917   -4.9042    0.0000 C   0  0  0  0  0  0  0  0  0  0  0  0
    1.7292   -5.6417    0.0000 C   0  0  0  0  0  0  0  0  0  0  0  0
    7.2000   -2.3917    0.0000 C   0  0  0  0  0  0  0  0  0  0  0  0
    5.2500   -5.6917    0.0000 N   0  0  0  0  0  0  0  0  0  0  0  0
    1.4750   -6.4292    0.0000 N   0  0  0  0  0  0  0  0  0  0  0  0
    7.8667   -2.8792    0.0000 N   0  0  0  0  0  0  0  0  0  0  0  0
    2.5167   -5.3917    0.0000 C   0  0  0  0  0  0  0  0  0  0  0  0
    5.4792   -4.2417    0.0000 C   0  0  0  0  0  0  0  0  0  0  0  0
    3.9167   -5.6917    0.0000 C   0  0  0  0  0  0  0  0  0  0  0  0
    6.7875   -3.6625    0.0000 C   0  0  0  0  0  0  0  0  0  0  0  0
    4.1667   -4.9042    0.0000 C   0  0  0  0  0  0  0  0  0  0  0  0
    6.5292   -2.8792    0.0000 C   0  0  0  0  0  0  0  0  0  0  0  0
    1.0625   -5.1625    0.0000 C   0  0  0  0  0  0  0  0  0  0  0  0
    7.6042   -3.6667    0.0000 C   0  0  0  0  0  0  0  0  0  0  0  0
    4.5792   -6.1792    0.0000 C   0  0  0  0  0  0  0  0  0  0  0  0
    0.6500   -6.4292    0.0000 C   0  0  0  0  0  0  0  0  0  0  0  0
    6.3000   -4.3292    0.0000 N   0  0  0  0  0  0  0  0  0  0  0  0
    3.1292   -5.9417    0.0000 N   0  0  0  0  0  0  0  0  0  0  0  0
    0.4000   -5.6417    0.0000 C   0  0  0  0  0  0  0  0  0  0  0  0
    7.2000   -1.5667    0.0000 C   0  0  0  0  0  0  0  0  0  0  0  0
    8.6292    1.7333    0.0000 N   0  0  0  0  0  0  0  0  0  0  0  0
    8.6292    0.9083    0.0000 C   0  0  0  0  0  0  0  0  0  0  0  0
    2.6917   -4.5875    0.0000 O   0  0  0  0  0  0  0  0  0  0  0  0
    5.1417   -3.4875    0.0000 O   0  0  0  0  0  0  0  0  0  0  0  0
   -1.0000   -5.9417    0.0000 C   0  0  0  0  0  0  0  0  0  0  0  0
    8.6292    0.0833    0.0000 C   0  0  0  0  0  0  0  0  0  0  0  0
   -0.3833   -5.3917    0.0000 N   0  0  0  0  0  0  0  0  0  0  0  0
    6.4875   -1.1542    0.0000 O   0  0  0  0  0  0  0  0  0  0  0  0
    6.3375    1.7750    0.0000 Br  0  0  0  0  0  0  0  0  0  0  0  0
    7.9167   -1.1542    0.0000 N   0  0  0  0  0  0  0  0  0  0  0  0
   -0.8250   -6.7500    0.0000 O   0  0  0  0  0  0  0  0  0  0  0  0
    9.4542    0.9083    0.0000 N   0  0  0  0  0  0  0  0  0  0  0  0
    7.9167   -0.3292    0.0000 C   0  0  0  0  0  0  0  0  0  0  0  0
    1.9625   -7.1000    0.0000 C   0  0  0  0  0  0  0  0  0  0  0  0
    8.6500   -2.6292    0.0000 C   0  0  0  0  0  0  0  0  0  0  0  0
    6.0292   -5.9500    0.0000 C   0  0  0  0  0  0  0  0  0  0  0  0
    1.6250   -7.8542    0.0000 C   0  0  0  0  0  0  0  0  0  0  0  0
  2  7  1  0  0  0  0
  3 12  2  0  0  0  0
  4  1  1  0  0  0  0
  5  2  1  0  0  0  0
  6 14  1  0  0  0  0
  7 18  1  0  0  0  0
  8  1  1  0  0  0  0
  9 11  1  0  0  0  0
 10 17  1  0  0  0  0
 11  1  2  0  0  0  0
 12 10  1  0  0  0  0
 13  2  2  0  0  0  0
 14 10  2  0  0  0  0
 15  4  1  0  0  0  0
 16  5  1  0  0  0  0
 17  8  1  0  0  0  0
 18  9  1  0  0  0  0
 19 13  1  0  0  0  0
 20  3  1  0  0  0  0
 21 22  2  0  0  0  0
 22 26  1  0  0  0  0
 23  7  2  0  0  0  0
 24  8  2  0  0  0  0
 25 27  1  0  0  0  0
 26 33  1  0  0  0  0
 27 19  1  0  0  0  0
 28 20  2  0  0  0  0
 30 20  1  0  0  0  0
 31 25  2  0  0  0  0
 32 22  1  0  0  0  0
 33 30  1  0  0  0  0
 34  5  1  0  0  0  0
 35  6  1  0  0  0  0
 36  4  1  0  0  0  0
 37 34  1  0  0  0  0
  9 15  2  0  0  0  0
  6  3  1  0  0  0  0
 19 16  2  0  0  0  0
M  END
>  <Mol Weight>
576.446

>  <Formula>
C23H30BrN9O4

>  <chembl_id>
CHEMBL9494

$$$$

  Mrv0541 06201412482D          

 42 47  0  0  0  0            999 V2000
    9.5496   -6.0771    0.0000 C   0  0  0  0  0  0  0  0  0  0  0  0
    9.9777   -6.7825    0.0000 N   0  0  0  0  0  0  0  0  0  0  0  0
   10.8023   -6.7633    0.0000 C   0  0  0  0  0  0  0  0  0  0  0  0
   11.1987   -6.0383    0.0000 C   0  0  0  0  0  0  0  0  0  0  0  0
   10.7646   -5.3312    0.0000 C   0  0  0  0  0  0  0  0  0  0  0  0
    9.9417   -5.3538    0.0000 N   0  0  0  0  0  0  0  0  0  0  0  0
    5.4878   -4.5948    0.0000 C   0  0  0  0  0  0  0  0  0  0  0  0
    4.7753   -5.0105    0.0000 C   0  0  0  0  0  0  0  0  0  0  0  0
    4.7838   -5.8352    0.0000 C   0  0  0  0  0  0  0  0  0  0  0  0
    5.5036   -6.2410    0.0000 C   0  0  0  0  0  0  0  0  0  0  0  0
    6.9861   -4.7317    0.0000 N   0  0  0  0  0  0  0  0  0  0  0  0
    6.2044   -4.9929    0.0000 C   0  0  0  0  0  0  0  0  0  0  0  0
    6.2123   -5.8179    0.0000 C   0  0  0  0  0  0  0  0  0  0  0  0
    7.0002   -6.0638    0.0000 N   0  0  0  0  0  0  0  0  0  0  0  0
    7.4761   -5.3901    0.0000 C   0  0  0  0  0  0  0  0  0  0  0  0
    8.3016   -5.3799    0.0000 C   0  0  0  0  0  0  0  0  0  0  0  0
    8.7230   -6.0897    0.0000 S   0  0  0  0  0  0  0  0  0  0  0  0
   11.1579   -4.6054    0.0000 C   0  0  0  0  0  0  0  0  0  0  0  0
   11.9814   -4.5873    0.0000 C   0  0  0  0  0  0  0  0  0  0  0  0
   12.3745   -3.8623    0.0000 C   0  0  0  0  0  0  0  0  0  0  0  0
   11.9424   -3.1579    0.0000 C   0  0  0  0  0  0  0  0  0  0  0  0
   11.1130   -3.1831    0.0000 C   0  0  0  0  0  0  0  0  0  0  0  0
   10.7237   -3.9086    0.0000 C   0  0  0  0  0  0  0  0  0  0  0  0
   12.0233   -6.0157    0.0000 C   0  0  0  0  0  0  0  0  0  0  0  0
   12.8485   -5.9951    0.0000 N   0  0  0  0  0  0  0  0  0  0  0  0
   11.2314   -7.4685    0.0000 N   0  0  0  0  0  0  0  0  0  0  0  0
   10.8340   -8.1908    0.0000 C   0  0  0  0  0  0  0  0  0  0  0  0
   11.2596   -8.8939    0.0000 C   0  0  0  0  0  0  0  0  0  0  0  0
   12.0853   -8.8790    0.0000 N   0  0  0  0  0  0  0  0  0  0  0  0
   12.4836   -8.1549    0.0000 C   0  0  0  0  0  0  0  0  0  0  0  0
   12.0561   -7.4456    0.0000 C   0  0  0  0  0  0  0  0  0  0  0  0
   12.5118   -9.5858    0.0000 C   0  0  0  0  0  0  0  0  0  0  0  0
   12.1131  -10.3085    0.0000 O   0  0  0  0  0  0  0  0  0  0  0  0
   13.3372   -9.5697    0.0000 C   0  0  0  0  0  0  0  0  0  0  0  0
   13.7605  -10.2775    0.0000 C   0  0  0  0  0  0  0  0  0  0  0  0
   14.5850  -10.2618    0.0000 C   0  0  0  0  0  0  0  0  0  0  0  0
   14.9846   -9.5385    0.0000 C   0  0  0  0  0  0  0  0  0  0  0  0
   14.5536   -8.8295    0.0000 C   0  0  0  0  0  0  0  0  0  0  0  0
   13.7305   -8.8487    0.0000 C   0  0  0  0  0  0  0  0  0  0  0  0
   15.8139   -9.5222    0.0000 N   0  3  0  0  0  0  0  0  0  0  0  0
   16.2117   -8.7989    0.0000 O   0  0  0  0  0  0  0  0  0  0  0  0
   16.2413  -10.2284    0.0000 O   0  5  0  0  0  0  0  0  0  0  0  0
 19 20  1  0  0  0  0
 10 13  1  0  0  0  0
 20 21  2  0  0  0  0
 12  7  1  0  0  0  0
 21 22  1  0  0  0  0
 12 13  2  0  0  0  0
 22 23  2  0  0  0  0
 23 18  1  0  0  0  0
  2  3  1  0  0  0  0
  5  6  2  0  0  0  0
 24 25  3  0  0  0  0
  4 24  1  0  0  0  0
  6  1  1  0  0  0  0
  3 26  1  0  0  0  0
 26 27  1  0  0  0  0
  1  2  2  0  0  0  0
  3  4  2  0  0  0  0
 11 12  1  0  0  0  0
 13 14  1  0  0  0  0
 14 15  1  0  0  0  0
 26 31  1  0  0  0  0
 27 28  1  0  0  0  0
 28 29  1  0  0  0  0
 29 30  1  0  0  0  0
 30 31  1  0  0  0  0
 15 11  2  0  0  0  0
 29 32  1  0  0  0  0
  7  8  2  0  0  0  0
 32 33  2  0  0  0  0
 15 16  1  0  0  0  0
 32 34  1  0  0  0  0
 34 35  2  0  0  0  0
 16 17  1  0  0  0  0
 35 36  1  0  0  0  0
 17  1  1  0  0  0  0
 36 37  2  0  0  0  0
  8  9  1  0  0  0  0
 37 38  1  0  0  0  0
  5 18  1  0  0  0  0
 38 39  2  0  0  0  0
 39 34  1  0  0  0  0
  4  5  1  0  0  0  0
 18 19  2  0  0  0  0
  9 10  2  0  0  0  0
 40 41  2  0  0  0  0
 40 42  1  0  0  0  0
 37 40  1  0  0  0  0
M  CHG  2  40   1  42  -1
M  END
>  <Mol Weight>
576.628

>  <Formula>
C30H24N8O3S

>  <chembl_id>
CHEMBL1163280

$$$$

  Mrv0541 06201412482D          

 42 45  0  0  0  0            999 V2000
    1.9422   -3.7011    0.0000 C   0  0  0  0  0  0  0  0  0  0  0  0
    1.9308   -2.8761    0.0000 C   0  0  0  0  0  0  0  0  0  0  0  0
    1.2203   -4.1136    0.0000 N   0  0  0  0  0  0  0  0  0  0  0  0
    0.5156   -2.8761    0.0000 N   0  0  0  0  0  0  0  0  0  0  0  0
    0.5156   -3.7011    0.0000 C   0  0  0  0  0  0  0  0  0  0  0  0
    2.7214   -3.9531    0.0000 N   0  0  0  0  0  0  0  0  0  0  0  0
    1.2203   -2.4636    0.0000 C   0  0  0  0  0  0  0  0  0  0  0  0
    2.7156   -2.6183    0.0000 N   0  0  0  0  0  0  0  0  0  0  0  0
    3.2026   -3.2886    0.0000 C   0  0  0  0  0  0  0  0  0  0  0  0
   11.0230   -5.4141    0.0000 C   0  0  0  0  0  0  0  0  0  0  0  0
    4.0276   -3.2828    0.0000 C   0  0  0  0  0  0  0  0  0  0  0  0
   -0.2005   -4.1078    0.0000 O   0  0  0  0  0  0  0  0  0  0  0  0
    1.2089   -1.6386    0.0000 O   0  0  0  0  0  0  0  0  0  0  0  0
   11.8480   -5.4141    0.0000 N   0  0  0  0  0  0  0  0  0  0  0  0
    7.7344   -3.9875    0.0000 C   0  0  0  0  0  0  0  0  0  0  0  0
   11.0172   -4.5891    0.0000 S   0  0  0  0  0  0  0  0  0  0  0  0
    1.2203   -4.9386    0.0000 C   0  0  0  0  0  0  0  0  0  0  0  0
    8.1469   -3.2714    0.0000 O   0  0  0  0  0  0  0  0  0  0  0  0
   -0.2005   -2.4636    0.0000 C   0  0  0  0  0  0  0  0  0  0  0  0
   10.1980   -5.4198    0.0000 N   0  0  0  0  0  0  0  0  0  0  0  0
    4.4344   -3.9933    0.0000 C   0  0  0  0  0  0  0  0  0  0  0  0
    4.4230   -2.5667    0.0000 C   0  0  0  0  0  0  0  0  0  0  0  0
    8.1355   -4.6922    0.0000 N   0  0  0  0  0  0  0  0  0  0  0  0
   12.6730   -5.4141    0.0000 C   0  0  0  0  0  0  0  0  0  0  0  0
    6.4969   -3.2714    0.0000 O   0  0  0  0  0  0  0  0  0  0  0  0
    6.9094   -3.9933    0.0000 C   0  0  0  0  0  0  0  0  0  0  0  0
    5.6719   -3.2828    0.0000 C   0  0  0  0  0  0  0  0  0  0  0  0
   14.3172   -5.4198    0.0000 C   0  0  0  0  0  0  0  0  0  0  0  0
    5.2594   -3.9933    0.0000 C   0  0  0  0  0  0  0  0  0  0  0  0
    5.2480   -2.5667    0.0000 C   0  0  0  0  0  0  0  0  0  0  0  0
   13.0797   -6.1359    0.0000 C   0  0  0  0  0  0  0  0  0  0  0  0
   13.0797   -4.6980    0.0000 C   0  0  0  0  0  0  0  0  0  0  0  0
   13.8933   -4.6980    0.0000 C   0  0  0  0  0  0  0  0  0  0  0  0
   13.9047   -6.1359    0.0000 C   0  0  0  0  0  0  0  0  0  0  0  0
   15.1422   -5.4198    0.0000 O   0  0  0  0  0  0  0  0  0  0  0  0
    9.3730   -5.4141    0.0000 C   0  0  0  0  0  0  0  0  0  0  0  0
    8.9605   -4.6980    0.0000 C   0  0  0  0  0  0  0  0  0  0  0  0
   -0.9223   -2.8761    0.0000 C   0  0  0  0  0  0  0  0  0  0  0  0
    0.5042   -5.3511    0.0000 C   0  0  0  0  0  0  0  0  0  0  0  0
   15.7151   -4.8297    0.0000 C   0  0  0  0  0  0  0  0  0  0  0  0
    0.5042   -6.1761    0.0000 C   0  0  0  0  0  0  0  0  0  0  0  0
   -1.6328   -2.4636    0.0000 C   0  0  0  0  0  0  0  0  0  0  0  0
  2  1  2  0  0  0  0
  3  1  1  0  0  0  0
  4  5  1  0  0  0  0
  5  3  1  0  0  0  0
  6  1  1  0  0  0  0
  7  2  1  0  0  0  0
  8  2  1  0  0  0  0
  9  6  1  0  0  0  0
 10 20  2  3  0  0  0
 11  9  1  0  0  0  0
 12  5  2  0  0  0  0
 13  7  2  0  0  0  0
 14 10  1  0  0  0  0
 15 26  1  0  0  0  0
 16 10  1  0  0  0  0
 17  3  1  0  0  0  0
 18 15  2  0  0  0  0
 19  4  1  0  0  0  0
 20 36  1  0  0  0  0
 21 11  2  0  0  0  0
 22 11  1  0  0  0  0
 23 15  1  0  0  0  0
 24 14  1  0  0  0  0
 25 27  1  0  0  0  0
 26 25  1  0  0  0  0
 27 30  1  0  0  0  0
 28 33  1  0  0  0  0
 29 21  1  0  0  0  0
 30 22  2  0  0  0  0
 31 24  2  0  0  0  0
 32 24  1  0  0  0  0
 33 32  2  0  0  0  0
 34 31  1  0  0  0  0
 35 28  1  0  0  0  0
 36 37  1  0  0  0  0
 37 23  1  0  0  0  0
 38 19  1  0  0  0  0
 39 17  1  0  0  0  0
 40 35  1  0  0  0  0
 41 39  1  0  0  0  0
 42 38  1  0  0  0  0
  9  8  2  0  0  0  0
  4  7  1  0  0  0  0
 29 27  2  0  0  0  0
 34 28  2  0  0  0  0
M  END
>  <Mol Weight>
593.697

>  <Formula>
C29H35N7O5S

>  <chembl_id>
CHEMBL9695

$$$$

  Mrv0541 06201412482D          

 42 45  0  0  0  0            999 V2000
    1.8046   -3.7010    0.0000 C   0  0  0  0  0  0  0  0  0  0  0  0
    1.7932   -2.8760    0.0000 C   0  0  0  0  0  0  0  0  0  0  0  0
    1.0828   -4.1135    0.0000 N   0  0  0  0  0  0  0  0  0  0  0  0
    0.3781   -2.8760    0.0000 N   0  0  0  0  0  0  0  0  0  0  0  0
    0.3781   -3.7010    0.0000 C   0  0  0  0  0  0  0  0  0  0  0  0
    2.5838   -3.9530    0.0000 N   0  0  0  0  0  0  0  0  0  0  0  0
    1.0828   -2.4635    0.0000 C   0  0  0  0  0  0  0  0  0  0  0  0
    2.5781   -2.6182    0.0000 N   0  0  0  0  0  0  0  0  0  0  0  0
    3.0651   -3.2885    0.0000 C   0  0  0  0  0  0  0  0  0  0  0  0
   10.8794   -5.4139    0.0000 C   0  0  0  0  0  0  0  0  0  0  0  0
   15.8293   -5.4139    0.0000 N   0  0  0  0  0  0  0  0  0  0  0  0
    3.8901   -3.2827    0.0000 C   0  0  0  0  0  0  0  0  0  0  0  0
   -0.3437   -4.1077    0.0000 O   0  0  0  0  0  0  0  0  0  0  0  0
   15.0043   -5.4197    0.0000 C   0  0  0  0  0  0  0  0  0  0  0  0
    1.0714   -1.6385    0.0000 O   0  0  0  0  0  0  0  0  0  0  0  0
   11.7044   -5.4139    0.0000 N   0  0  0  0  0  0  0  0  0  0  0  0
    7.5967   -3.9874    0.0000 C   0  0  0  0  0  0  0  0  0  0  0  0
   10.8794   -4.5890    0.0000 S   0  0  0  0  0  0  0  0  0  0  0  0
    1.0828   -4.9385    0.0000 C   0  0  0  0  0  0  0  0  0  0  0  0
    8.0092   -3.2713    0.0000 O   0  0  0  0  0  0  0  0  0  0  0  0
   -0.3380   -2.4635    0.0000 C   0  0  0  0  0  0  0  0  0  0  0  0
   10.0602   -5.4197    0.0000 N   0  0  0  0  0  0  0  0  0  0  0  0
    4.2968   -3.9932    0.0000 C   0  0  0  0  0  0  0  0  0  0  0  0
    4.2854   -2.5666    0.0000 C   0  0  0  0  0  0  0  0  0  0  0  0
   14.1793   -5.4197    0.0000 C   0  0  0  0  0  0  0  0  0  0  0  0
    7.9978   -4.6921    0.0000 N   0  0  0  0  0  0  0  0  0  0  0  0
   12.5294   -5.4139    0.0000 C   0  0  0  0  0  0  0  0  0  0  0  0
    6.3592   -3.2713    0.0000 O   0  0  0  0  0  0  0  0  0  0  0  0
    6.7717   -3.9932    0.0000 C   0  0  0  0  0  0  0  0  0  0  0  0
    5.5342   -3.2827    0.0000 C   0  0  0  0  0  0  0  0  0  0  0  0
    5.1217   -3.9932    0.0000 C   0  0  0  0  0  0  0  0  0  0  0  0
    5.1103   -2.5666    0.0000 C   0  0  0  0  0  0  0  0  0  0  0  0
   13.7669   -6.1358    0.0000 C   0  0  0  0  0  0  0  0  0  0  0  0
   13.7554   -4.6978    0.0000 C   0  0  0  0  0  0  0  0  0  0  0  0
   12.9419   -6.1358    0.0000 C   0  0  0  0  0  0  0  0  0  0  0  0
   12.9419   -4.6978    0.0000 C   0  0  0  0  0  0  0  0  0  0  0  0
    9.2352   -5.4139    0.0000 C   0  0  0  0  0  0  0  0  0  0  0  0
    8.8227   -4.6978    0.0000 C   0  0  0  0  0  0  0  0  0  0  0  0
    0.3667   -5.3510    0.0000 C   0  0  0  0  0  0  0  0  0  0  0  0
   -1.0598   -2.8760    0.0000 C   0  0  0  0  0  0  0  0  0  0  0  0
    0.3667   -6.1759    0.0000 C   0  0  0  0  0  0  0  0  0  0  0  0
   -1.7703   -2.4635    0.0000 C   0  0  0  0  0  0  0  0  0  0  0  0
  2  1  2  0  0  0  0
  3  1  1  0  0  0  0
  4  5  1  0  0  0  0
  5  3  1  0  0  0  0
  6  1  1  0  0  0  0
  7  2  1  0  0  0  0
  8  2  1  0  0  0  0
  9  6  1  0  0  0  0
 10 22  2  3  0  0  0
 11 14  3  0  0  0  0
 12  9  1  0  0  0  0
 13  5  2  0  0  0  0
 14 25  1  0  0  0  0
 15  7  2  0  0  0  0
 16 10  1  0  0  0  0
 17 29  1  0  0  0  0
 18 10  1  0  0  0  0
 19  3  1  0  0  0  0
 20 17  2  0  0  0  0
 21  4  1  0  0  0  0
 22 37  1  0  0  0  0
 23 12  2  0  0  0  0
 24 12  1  0  0  0  0
 25 34  2  0  0  0  0
 26 17  1  0  0  0  0
 27 16  1  0  0  0  0
 28 30  1  0  0  0  0
 29 28  1  0  0  0  0
 30 32  1  0  0  0  0
 31 23  1  0  0  0  0
 32 24  2  0  0  0  0
 33 35  2  0  0  0  0
 34 36  1  0  0  0  0
 35 27  1  0  0  0  0
 36 27  2  0  0  0  0
 37 38  1  0  0  0  0
 38 26  1  0  0  0  0
 39 19  1  0  0  0  0
 40 21  1  0  0  0  0
 41 39  1  0  0  0  0
 42 40  1  0  0  0  0
  9  8  2  0  0  0  0
  4  7  1  0  0  0  0
 31 30  2  0  0  0  0
 33 25  1  0  0  0  0
M  END
>  <Mol Weight>
588.681

>  <Formula>
C29H32N8O4S

>  <chembl_id>
CHEMBL9717

$$$$

  Mrv0541 06201412482D          

 31 33  0  0  1  0            999 V2000
    3.1834   -2.2196    0.0000 C   0  0  1  0  0  0  0  0  0  0  0  0
    1.0306   -3.4420    0.0000 C   0  0  1  0  0  0  0  0  0  0  0  0
    1.0306   -4.2598    0.0000 C   0  0  0  0  0  0  0  0  0  0  0  0
    3.1792   -3.0457    0.0000 C   0  0  0  0  0  0  0  0  0  0  0  0
    1.7440   -3.0332    0.0000 C   0  0  0  0  0  0  0  0  0  0  0  0
    2.4574   -3.4546    0.0000 C   0  0  0  0  0  0  0  0  0  0  0  0
    3.9719   -1.9776    0.0000 C   0  0  0  0  0  0  0  0  0  0  0  0
    1.7440   -4.6854    0.0000 C   0  0  0  0  0  0  0  0  0  0  0  0
    2.4783   -1.8024    0.0000 C   0  0  0  0  0  0  0  0  0  0  0  0
    6.4001   -1.4895    0.0000 S   0  3  0  0  0  0  0  0  0  0  0  0
    2.4574   -4.2723    0.0000 C   0  0  0  0  0  0  0  0  0  0  0  0
    1.7523   -2.2071    0.0000 C   0  0  0  0  0  0  0  0  0  0  0  0
    3.9594   -3.3086    0.0000 C   0  0  0  0  0  0  0  0  0  0  0  0
    0.3171   -3.0207    0.0000 C   0  0  0  0  0  0  0  0  0  0  0  0
    4.4476   -2.6452    0.0000 C   0  0  0  0  0  0  0  0  0  0  0  0
    0.3171   -4.6729    0.0000 C   0  0  0  0  0  0  0  0  0  0  0  0
    5.5866   -1.6522    0.0000 C   0  0  0  0  0  0  0  0  0  0  0  0
    7.4098   -3.9094    0.0000 I   0  5  0  0  0  0  0  0  0  0  0  0
    4.2348   -1.1933    0.0000 C   0  0  1  0  0  0  0  0  0  0  0  0
    5.0442   -1.0306    0.0000 C   0  0  0  0  0  0  0  0  0  0  0  0
    6.9467   -2.1070    0.0000 C   0  0  0  0  0  0  0  0  0  0  0  0
    3.1834   -1.3935    0.0000 C   0  0  0  0  0  0  0  0  0  0  0  0
   -0.3880   -3.4420    0.0000 C   0  0  0  0  0  0  0  0  0  0  0  0
   -0.3880   -4.2598    0.0000 C   0  0  2  0  0  0  0  0  0  0  0  0
    1.0306   -2.6159    0.0000 C   0  0  0  0  0  0  0  0  0  0  0  0
    6.6630   -0.7051    0.0000 C   0  0  0  0  0  0  0  0  0  0  0  0
   -1.1098   -4.6854    0.0000 O   0  0  0  0  0  0  0  0  0  0  0  0
    3.6841   -0.5758    0.0000 C   0  0  0  0  0  0  0  0  0  0  0  0
    6.6838   -2.8913    0.0000 C   0  0  0  0  0  0  0  0  0  0  0  0
    7.7519   -1.9443    0.0000 C   0  0  0  0  0  0  0  0  0  0  0  0
    7.4766   -0.5424    0.0000 C   0  0  0  0  0  0  0  0  0  0  0  0
  2  5  1  0  0  0  0
  3  2  1  0  0  0  0
  4  1  1  0  0  0  0
  5 12  1  0  0  0  0
  6  4  1  0  0  0  0
  7  1  1  0  0  0  0
  8 11  1  0  0  0  0
  9  1  1  0  0  0  0
 10 17  1  0  0  0  0
 11  6  1  0  0  0  0
 12  9  1  0  0  0  0
 13  4  1  0  0  0  0
 14  2  1  0  0  0  0
 15  7  1  0  0  0  0
 16  3  1  0  0  0  0
 17 20  1  0  0  0  0
 19  7  1  0  0  0  0
 20 19  1  0  0  0  0
 21 10  1  0  0  0  0
  1 22  1  1  0  0  0
 23 14  1  0  0  0  0
 24 23  1  0  0  0  0
  2 25  1  1  0  0  0
 26 10  1  0  0  0  0
 24 27  1  1  0  0  0
 19 28  1  6  0  0  0
 29 21  1  0  0  0  0
 30 21  1  0  0  0  0
 31 26  1  0  0  0  0
 15 13  1  0  0  0  0
  5  6  1  0  0  0  0
  8  3  2  0  0  0  0
 24 16  1  0  0  0  0
M  CHG  2  10   1  18  -1
M  END
>  <Mol Weight>
560.658

>  <Formula>
C28H49IOS

>  <chembl_id>
CHEMBL9825

$$$$

  Mrv0541 06201412482D          

 41 45  0  0  0  0            999 V2000
    2.8935   -0.5929    0.0000 C   0  0  0  0  0  0  0  0  0  0  0  0
    2.1712   -0.1754    0.0000 C   0  0  0  0  0  0  0  0  0  0  0  0
    2.8935   -1.4322    0.0000 C   0  0  0  0  0  0  0  0  0  0  0  0
    1.4530   -0.5929    0.0000 C   0  0  0  0  0  0  0  0  0  0  0  0
    3.6117   -0.1879    0.0000 C   0  0  0  0  0  0  0  0  0  0  0  0
    2.1670   -1.8455    0.0000 N   0  0  0  0  0  0  0  0  0  0  0  0
   -0.3716    0.1253    0.0000 C   0  0  0  0  0  0  0  0  0  0  0  0
   -1.1858    0.2380    0.0000 S   0  0  0  0  0  0  0  0  0  0  0  0
    1.4447   -1.4322    0.0000 C   0  0  0  0  0  0  0  0  0  0  0  0
   -0.0083    0.8726    0.0000 C   0  0  0  0  0  0  0  0  0  0  0  0
    0.7307   -0.1796    0.0000 C   0  0  0  0  0  0  0  0  0  0  0  0
    0.0251   -0.6012    0.0000 C   0  0  0  0  0  0  0  0  0  0  0  0
    4.3256   -0.6012    0.0000 N   0  0  0  0  0  0  0  0  0  0  0  0
   -1.3361    1.0605    0.0000 C   0  0  0  0  0  0  0  0  0  0  0  0
   -0.6012    1.4488    0.0000 C   0  0  0  0  0  0  0  0  0  0  0  0
    3.6075   -1.8455    0.0000 O   0  0  0  0  0  0  0  0  0  0  0  0
    3.6117    0.6388    0.0000 O   0  0  0  0  0  0  0  0  0  0  0  0
   12.8934    1.0354    0.0000 C   0  0  0  0  0  0  0  0  0  0  0  0
    0.7307   -1.8413    0.0000 C   0  0  0  0  0  0  0  0  0  0  0  0
    2.1712    0.6513    0.0000 O   0  0  0  0  0  0  0  0  0  0  0  0
    0.0167   -1.4280    0.0000 C   0  0  0  0  0  0  0  0  0  0  0  0
   12.8934    1.8622    0.0000 O   0  0  0  0  0  0  0  0  0  0  0  0
    5.0396   -0.1879    0.0000 C   0  0  0  0  0  0  0  0  0  0  0  0
    6.4676    0.6346    0.0000 C   0  0  0  0  0  0  0  0  0  0  0  0
   13.6073    0.6221    0.0000 O   0  0  0  0  0  0  0  0  0  0  0  0
    5.7536   -0.6055    0.0000 C   0  0  0  0  0  0  0  0  0  0  0  0
    5.0396    0.6346    0.0000 C   0  0  0  0  0  0  0  0  0  0  0  0
    5.7536    1.0480    0.0000 C   0  0  0  0  0  0  0  0  0  0  0  0
    6.4676   -0.1921    0.0000 C   0  0  0  0  0  0  0  0  0  0  0  0
    7.1899    1.0480    0.0000 O   0  0  0  0  0  0  0  0  0  0  0  0
   -2.0375    1.4906    0.0000 C   0  0  0  0  0  0  0  0  0  0  0  0
   -0.5845    2.2797    0.0000 C   0  0  0  0  0  0  0  0  0  0  0  0
   12.1877    0.6221    0.0000 C   0  0  0  0  0  0  0  0  0  0  0  0
    7.9038    0.6346    0.0000 C   0  0  0  0  0  0  0  0  0  0  0  0
   11.4737    1.0354    0.0000 C   0  0  0  0  0  0  0  0  0  0  0  0
    8.6178    1.0397    0.0000 C   0  0  0  0  0  0  0  0  0  0  0  0
    9.3318    0.6263    0.0000 C   0  0  0  0  0  0  0  0  0  0  0  0
   10.0375    1.0354    0.0000 C   0  0  0  0  0  0  0  0  0  0  0  0
   10.7598    0.6221    0.0000 C   0  0  0  0  0  0  0  0  0  0  0  0
   -1.2860    2.7139    0.0000 C   0  0  0  0  0  0  0  0  0  0  0  0
   -2.0041    2.3173    0.0000 C   0  0  0  0  0  0  0  0  0  0  0  0
  2  1  2  0  0  0  0
  3  1  1  0  0  0  0
  4  2  1  0  0  0  0
  5  1  1  0  0  0  0
  6  3  2  0  0  0  0
  7 12  1  0  0  0  0
  8  7  1  0  0  0  0
  9  6  1  0  0  0  0
 10  7  2  0  0  0  0
 11  4  2  0  0  0  0
 12 11  1  0  0  0  0
 13  5  1  0  0  0  0
 14  8  1  0  0  0  0
 15 10  1  0  0  0  0
 16  3  1  0  0  0  0
 17  5  2  0  0  0  0
 18 33  1  0  0  0  0
 19  9  2  0  0  0  0
 20  2  1  0  0  0  0
 21 19  1  0  0  0  0
 22 18  2  0  0  0  0
 23 13  1  0  0  0  0
 24 28  1  0  0  0  0
 25 18  1  0  0  0  0
 26 23  2  0  0  0  0
 27 23  1  0  0  0  0
 28 27  2  0  0  0  0
 29 26  1  0  0  0  0
 30 24  1  0  0  0  0
 31 14  2  0  0  0  0
 32 15  2  0  0  0  0
 33 35  1  0  0  0  0
 34 30  1  0  0  0  0
 35 39  1  0  0  0  0
 36 34  1  0  0  0  0
 37 36  1  0  0  0  0
 38 37  1  0  0  0  0
 39 38  1  0  0  0  0
 40 32  1  0  0  0  0
 41 31  1  0  0  0  0
  9  4  1  0  0  0  0
 24 29  2  0  0  0  0
 21 12  2  0  0  0  0
 14 15  1  0  0  0  0
 41 40  2  0  0  0  0
M  END
>  <Mol Weight>
570.655

>  <Formula>
C32H30N2O6S

>  <chembl_id>
CHEMBL10014

$$$$

  Mrv0541 06201412482D          

 41 47  0  0  0  0            999 V2000
    3.0731   -3.4989    0.0000 N   0  0  0  0  0  0  0  0  0  0  0  0
    3.5616   -4.1753    0.0000 C   0  0  0  0  0  0  0  0  0  0  0  0
    3.0731   -4.8392    0.0000 C   0  0  0  0  0  0  0  0  0  0  0  0
    2.2922   -3.7578    0.0000 C   0  0  0  0  0  0  0  0  0  0  0  0
    2.2922   -4.5845    0.0000 C   0  0  0  0  0  0  0  0  0  0  0  0
    3.2943   -5.6367    0.0000 C   0  0  0  0  0  0  0  0  0  0  0  0
    1.5783   -3.3444    0.0000 C   0  0  0  0  0  0  0  0  0  0  0  0
    4.3883   -4.1753    0.0000 C   0  0  0  0  0  0  0  0  0  0  0  0
    1.5783   -4.9978    0.0000 C   0  0  0  0  0  0  0  0  0  0  0  0
    0.8560   -3.7620    0.0000 C   0  0  0  0  0  0  0  0  0  0  0  0
    3.3361   -2.7181    0.0000 C   0  0  0  0  0  0  0  0  0  0  0  0
    2.7098   -6.2254    0.0000 C   0  0  0  0  0  0  0  0  0  0  0  0
    2.9227   -7.0062    0.0000 C   0  0  0  0  0  0  0  0  0  0  0  0
    0.8560   -4.5845    0.0000 C   0  0  0  0  0  0  0  0  0  0  0  0
    4.9895   -1.4029    0.0000 C   0  0  0  0  0  0  0  0  0  0  0  0
    3.7327   -7.2274    0.0000 C   0  0  0  0  0  0  0  0  0  0  0  0
    5.6617   -1.8914    0.0000 C   0  0  0  0  0  0  0  0  0  0  0  0
    2.4718   -7.7076    0.0000 O   0  0  0  0  0  0  0  0  0  0  0  0
    5.2484   -0.6180    0.0000 O   0  0  0  0  0  0  0  0  0  0  0  0
    3.7745   -8.0584    0.0000 O   0  0  0  0  0  0  0  0  0  0  0  0
    6.3298   -1.4029    0.0000 O   0  0  0  0  0  0  0  0  0  0  0  0
    0.1420   -3.3444    0.0000 O   0  0  0  0  0  0  0  0  0  0  0  0
    4.0877   -5.8413    0.0000 C   0  0  0  0  0  0  0  0  0  0  0  0
    2.9979   -8.3590    0.0000 C   0  0  0  0  0  0  0  0  0  0  0  0
    6.0751   -0.6180    0.0000 C   0  0  0  0  0  0  0  0  0  0  0  0
    4.2380   -1.7328    0.0000 C   0  0  0  0  0  0  0  0  0  0  0  0
    4.1461   -2.5553    0.0000 C   0  0  0  0  0  0  0  0  0  0  0  0
    4.8016   -3.4614    0.0000 O   0  0  0  0  0  0  0  0  0  0  0  0
    4.3131   -6.6429    0.0000 C   0  0  0  0  0  0  0  0  0  0  0  0
    5.5615   -2.7098    0.0000 C   0  0  0  0  0  0  0  0  0  0  0  0
    4.8016   -4.8893    0.0000 O   0  0  0  0  0  0  0  0  0  0  0  0
    0.1420   -2.5177    0.0000 C   0  0  0  0  0  0  0  0  0  0  0  0
    4.8099   -3.0438    0.0000 C   0  0  0  0  0  0  0  0  0  0  0  0
    0.1420   -4.9978    0.0000 O   0  0  0  0  0  0  0  0  0  0  0  0
   -0.5720   -2.1044    0.0000 C   0  0  0  0  0  0  0  0  0  0  0  0
   -0.5720   -4.5845    0.0000 C   0  0  0  0  0  0  0  0  0  0  0  0
   -0.5637   -1.2819    0.0000 C   0  0  0  0  0  0  0  0  0  0  0  0
   -1.2860   -2.5219    0.0000 C   0  0  0  0  0  0  0  0  0  0  0  0
   -1.9999   -2.1086    0.0000 C   0  0  0  0  0  0  0  0  0  0  0  0
   -1.2860   -0.8643    0.0000 C   0  0  0  0  0  0  0  0  0  0  0  0
   -1.9999   -1.2776    0.0000 C   0  0  0  0  0  0  0  0  0  0  0  0
  2  1  1  0  0  0  0
  3  2  2  0  0  0  0
  4  1  1  0  0  0  0
  5  4  1  0  0  0  0
  6  3  1  0  0  0  0
  7  4  2  0  0  0  0
  8  2  1  0  0  0  0
  9  5  2  0  0  0  0
 10  7  1  0  0  0  0
 11  1  1  0  0  0  0
 12  6  2  0  0  0  0
 13 12  1  0  0  0  0
 14 10  2  0  0  0  0
 15 26  2  0  0  0  0
 16 29  1  0  0  0  0
 17 30  2  0  0  0  0
 18 13  1  0  0  0  0
 19 15  1  0  0  0  0
 20 16  1  0  0  0  0
 21 17  1  0  0  0  0
 22 10  1  0  0  0  0
 23  6  1  0  0  0  0
 24 18  1  0  0  0  0
 25 19  1  0  0  0  0
 26 27  1  0  0  0  0
 27 11  1  0  0  0  0
 28  8  2  0  0  0  0
 29 23  2  0  0  0  0
 30 33  1  0  0  0  0
 31  8  1  0  0  0  0
 32 22  1  0  0  0  0
 33 27  2  0  0  0  0
 34 14  1  0  0  0  0
 35 32  1  0  0  0  0
 36 34  1  0  0  0  0
 37 35  2  0  0  0  0
 38 35  1  0  0  0  0
 39 38  2  0  0  0  0
 40 37  1  0  0  0  0
 41 39  1  0  0  0  0
  3  5  1  0  0  0  0
 14  9  1  0  0  0  0
 17 15  1  0  0  0  0
 25 21  1  0  0  0  0
 13 16  2  0  0  0  0
 20 24  1  0  0  0  0
 41 40  2  0  0  0  0
M  END
>  <Mol Weight>
551.5428

>  <Formula>
C32H25NO8

>  <chembl_id>
CHEMBL10016

$$$$

  Mrv0541 06201412482D          

 33 35  0  0  1  0            999 V2000
    3.0625   -2.9625    0.0000 C   0  0  1  0  0  0  0  0  0  0  0  0
    2.3417   -3.3667    0.0000 C   0  0  0  0  0  0  0  0  0  0  0  0
    1.6292   -2.9417    0.0000 C   0  0  0  0  0  0  0  0  0  0  0  0
    0.9167   -3.3542    0.0000 C   0  0  2  0  0  0  0  0  0  0  0  0
    3.0667   -2.1375    0.0000 C   0  0  1  0  0  0  0  0  0  0  0  0
    0.9167   -4.1792    0.0000 C   0  0  0  0  0  0  0  0  0  0  0  0
    0.2042   -4.5875    0.0000 C   0  0  0  0  0  0  0  0  0  0  0  0
    3.8542   -1.8917    0.0000 C   0  0  0  0  0  0  0  0  0  0  0  0
    3.8417   -3.2167    0.0000 C   0  0  0  0  0  0  0  0  0  0  0  0
    2.3625   -1.7167    0.0000 C   0  0  0  0  0  0  0  0  0  0  0  0
    1.6375   -2.1167    0.0000 C   0  0  0  0  0  0  0  0  0  0  0  0
    2.3417   -4.1875    0.0000 C   0  0  0  0  0  0  0  0  0  0  0  0
    6.2792   -1.4042    0.0000 S   0  3  0  0  0  0  0  0  0  0  0  0
    0.2042   -2.9375    0.0000 C   0  0  0  0  0  0  0  0  0  0  0  0
    1.6292   -4.5917    0.0000 C   0  0  0  0  0  0  0  0  0  0  0  0
    4.3292   -2.5625    0.0000 C   0  0  0  0  0  0  0  0  0  0  0  0
   -0.5000   -4.1792    0.0000 C   0  0  2  0  0  0  0  0  0  0  0  0
    5.4667   -1.5667    0.0000 C   0  0  0  0  0  0  0  0  0  0  0  0
   -0.5000   -3.3542    0.0000 C   0  0  0  0  0  0  0  0  0  0  0  0
    7.8667   -3.0917    0.0000 I   0  5  0  0  0  0  0  0  0  0  0  0
    4.1167   -1.1125    0.0000 C   0  0  1  0  0  0  0  0  0  0  0  0
    4.9250   -0.9500    0.0000 C   0  0  0  0  0  0  0  0  0  0  0  0
    6.5417   -0.6250    0.0000 C   0  0  0  0  0  0  0  0  0  0  0  0
    3.0542   -3.7875    0.0000 C   0  0  0  0  0  0  0  0  0  0  0  0
    0.9167   -2.5292    0.0000 C   0  0  0  0  0  0  0  0  0  0  0  0
    3.0667   -1.3125    0.0000 C   0  0  0  0  0  0  0  0  0  0  0  0
   -0.3833   -5.1750    0.0000 C   0  0  0  0  0  0  0  0  0  0  0  0
    0.7917   -5.1750    0.0000 C   0  0  0  0  0  0  0  0  0  0  0  0
   -1.2208   -4.5917    0.0000 O   0  0  0  0  0  0  0  0  0  0  0  0
    6.8250   -2.0250    0.0000 C   0  0  0  0  0  0  0  0  0  0  0  0
    3.5667   -0.4917    0.0000 C   0  0  0  0  0  0  0  0  0  0  0  0
    6.0000   -0.0042    0.0000 C   0  0  0  0  0  0  0  0  0  0  0  0
    7.3542   -0.4625    0.0000 C   0  0  0  0  0  0  0  0  0  0  0  0
  2  1  1  0  0  0  0
  3  2  2  0  0  0  0
  4  3  1  0  0  0  0
  5  1  1  0  0  0  0
  6 15  1  0  0  0  0
  7  6  1  0  0  0  0
  8  5  1  0  0  0  0
  9  1  1  0  0  0  0
 10  5  1  0  0  0  0
 11 10  1  0  0  0  0
 12  2  1  0  0  0  0
 13 18  1  0  0  0  0
 14  4  1  0  0  0  0
 15 12  1  0  0  0  0
 16  9  1  0  0  0  0
 17  7  1  0  0  0  0
 18 22  1  0  0  0  0
 19 14  1  0  0  0  0
 21  8  1  0  0  0  0
 22 21  1  0  0  0  0
 23 13  1  0  0  0  0
  1 24  1  6  0  0  0
  4 25  1  1  0  0  0
  5 26  1  1  0  0  0
 27  7  1  0  0  0  0
 28  7  1  0  0  0  0
 17 29  1  1  0  0  0
 30 13  1  0  0  0  0
 21 31  1  6  0  0  0
 32 23  1  0  0  0  0
 33 23  1  0  0  0  0
  8 16  1  0  0  0  0
 11  3  1  0  0  0  0
  6  4  1  0  0  0  0
 17 19  1  0  0  0  0
M  CHG  2  13   1  20  -1
M  END
>  <Mol Weight>
588.711

>  <Formula>
C30H53IOS

>  <chembl_id>
CHEMBL9929

$$$$

  Mrv0541 06201412482D          

 41 45  0  0  0  0            999 V2000
    4.7598   -1.1816    0.0000 C   0  0  0  0  0  0  0  0  0  0  0  0
    4.0376   -0.7641    0.0000 C   0  0  0  0  0  0  0  0  0  0  0  0
    4.7598   -2.0209    0.0000 C   0  0  0  0  0  0  0  0  0  0  0  0
    5.4780   -0.7766    0.0000 C   0  0  0  0  0  0  0  0  0  0  0  0
    4.0333   -2.4342    0.0000 N   0  0  0  0  0  0  0  0  0  0  0  0
    3.3194   -1.1816    0.0000 C   0  0  0  0  0  0  0  0  0  0  0  0
    1.1691   -2.4300    0.0000 C   0  0  0  0  0  0  0  0  0  0  0  0
    3.3110   -2.0209    0.0000 C   0  0  0  0  0  0  0  0  0  0  0  0
    0.7808   -3.1607    0.0000 S   0  0  0  0  0  0  0  0  0  0  0  0
    0.5929   -1.8330    0.0000 C   0  0  0  0  0  0  0  0  0  0  0  0
    6.1920   -1.1900    0.0000 N   0  0  0  0  0  0  0  0  0  0  0  0
    1.8831   -2.0167    0.0000 C   0  0  0  0  0  0  0  0  0  0  0  0
   -0.0334   -3.0187    0.0000 C   0  0  0  0  0  0  0  0  0  0  0  0
    2.5971   -2.4300    0.0000 C   0  0  0  0  0  0  0  0  0  0  0  0
   -0.1503   -2.1962    0.0000 C   0  0  0  0  0  0  0  0  0  0  0  0
    2.5971   -0.7683    0.0000 C   0  0  0  0  0  0  0  0  0  0  0  0
    5.4738   -2.4342    0.0000 O   0  0  0  0  0  0  0  0  0  0  0  0
    5.4780    0.0501    0.0000 O   0  0  0  0  0  0  0  0  0  0  0  0
   14.7597    0.4467    0.0000 C   0  0  0  0  0  0  0  0  0  0  0  0
    1.8914   -1.1900    0.0000 C   0  0  0  0  0  0  0  0  0  0  0  0
    4.0376    0.0626    0.0000 O   0  0  0  0  0  0  0  0  0  0  0  0
   14.7597    1.2734    0.0000 O   0  0  0  0  0  0  0  0  0  0  0  0
    6.9060   -0.7766    0.0000 C   0  0  0  0  0  0  0  0  0  0  0  0
    8.3339    0.0459    0.0000 C   0  0  0  0  0  0  0  0  0  0  0  0
   15.4737    0.0334    0.0000 O   0  0  0  0  0  0  0  0  0  0  0  0
    7.6200   -1.1942    0.0000 C   0  0  0  0  0  0  0  0  0  0  0  0
    6.9060    0.0459    0.0000 C   0  0  0  0  0  0  0  0  0  0  0  0
    7.6200    0.4592    0.0000 C   0  0  0  0  0  0  0  0  0  0  0  0
    8.3339   -0.7808    0.0000 C   0  0  0  0  0  0  0  0  0  0  0  0
    9.0562    0.4592    0.0000 O   0  0  0  0  0  0  0  0  0  0  0  0
   -0.6847   -3.5240    0.0000 C   0  0  0  0  0  0  0  0  0  0  0  0
   -0.9227   -1.8914    0.0000 C   0  0  0  0  0  0  0  0  0  0  0  0
   14.0541    0.0334    0.0000 C   0  0  0  0  0  0  0  0  0  0  0  0
    9.7702    0.0459    0.0000 C   0  0  0  0  0  0  0  0  0  0  0  0
   13.3401    0.4467    0.0000 C   0  0  0  0  0  0  0  0  0  0  0  0
   10.4759    0.4509    0.0000 C   0  0  0  0  0  0  0  0  0  0  0  0
   11.1982    0.0376    0.0000 C   0  0  0  0  0  0  0  0  0  0  0  0
   11.9121    0.4467    0.0000 C   0  0  0  0  0  0  0  0  0  0  0  0
   12.6261    0.0334    0.0000 C   0  0  0  0  0  0  0  0  0  0  0  0
   -1.5741   -2.4050    0.0000 C   0  0  0  0  0  0  0  0  0  0  0  0
   -1.4530   -3.2108    0.0000 C   0  0  0  0  0  0  0  0  0  0  0  0
  2  1  2  0  0  0  0
  3  1  1  0  0  0  0
  4  1  1  0  0  0  0
  5  3  2  0  0  0  0
  6  2  1  0  0  0  0
  7 12  1  0  0  0  0
  8  5  1  0  0  0  0
  9  7  1  0  0  0  0
 10  7  2  0  0  0  0
 11  4  1  0  0  0  0
 12 14  1  0  0  0  0
 13  9  1  0  0  0  0
 14  8  2  0  0  0  0
 15 10  1  0  0  0  0
 16  6  2  0  0  0  0
 17  3  1  0  0  0  0
 18  4  2  0  0  0  0
 19 33  1  0  0  0  0
 20 16  1  0  0  0  0
 21  2  1  0  0  0  0
 22 19  2  0  0  0  0
 23 11  1  0  0  0  0
 24 28  1  0  0  0  0
 25 19  1  0  0  0  0
 26 23  2  0  0  0  0
 27 23  1  0  0  0  0
 28 27  2  0  0  0  0
 29 26  1  0  0  0  0
 30 24  1  0  0  0  0
 31 13  2  0  0  0  0
 32 15  2  0  0  0  0
 33 35  1  0  0  0  0
 34 30  1  0  0  0  0
 35 39  1  0  0  0  0
 36 34  1  0  0  0  0
 37 36  1  0  0  0  0
 38 37  1  0  0  0  0
 39 38  1  0  0  0  0
 40 32  1  0  0  0  0
 41 31  1  0  0  0  0
  8  6  1  0  0  0  0
 12 20  2  0  0  0  0
 24 29  2  0  0  0  0
 13 15  1  0  0  0  0
 41 40  2  0  0  0  0
M  END
>  <Mol Weight>
570.655

>  <Formula>
C32H30N2O6S

>  <chembl_id>
CHEMBL10181

$$$$

  Mrv0541 06201412482D          

 46 54  0  0  1  0            999 V2000
    4.9599   -5.9568    0.0000 C   0  0  0  0  0  0  0  0  0  0  0  0
    0.5674   -5.5981    0.0000 C   0  0  0  0  0  0  0  0  0  0  0  0
    0.1919   -6.3240    0.0000 C   0  0  0  0  0  0  0  0  0  0  0  0
    5.2477   -6.7244    0.0000 C   0  0  0  0  0  0  0  0  0  0  0  0
    4.1465   -5.8234    0.0000 C   0  0  2  0  0  0  0  0  0  0  0  0
    1.3933   -5.5606    0.0000 C   0  0  2  0  0  0  0  0  0  0  0  0
    2.6072   -8.0968    0.0000 C   0  0  0  0  0  0  0  0  0  0  0  0
    5.7108   -6.2989    0.0000 O   0  0  0  0  0  0  0  0  0  0  0  0
   -0.2211   -5.8484    0.0000 O   0  0  0  0  0  0  0  0  0  0  0  0
   -0.6382   -6.3698    0.0000 O   0  0  0  0  0  0  0  0  0  0  0  0
    6.0695   -6.8621    0.0000 O   0  0  0  0  0  0  0  0  0  0  0  0
    4.7304   -7.3710    0.0000 O   0  0  0  0  0  0  0  0  0  0  0  0
    0.6299   -7.0248    0.0000 O   0  0  0  0  0  0  0  0  0  0  0  0
    3.9212   -7.2333    0.0000 C   0  0  0  0  0  0  0  0  0  0  0  0
    1.4559   -6.9830    0.0000 C   0  0  0  0  0  0  0  0  0  0  0  0
    5.4813   -5.3228    0.0000 C   0  0  0  0  0  0  0  0  0  0  0  0
    0.1251   -4.9056    0.0000 C   0  0  1  0  0  0  0  0  0  0  0  0
   -1.4475   -6.1946    0.0000 C   0  0  1  0  0  0  0  0  0  0  0  0
    6.8871   -6.7828    0.0000 C   0  0  1  0  0  0  0  0  0  0  0  0
    3.0160   -8.8101    0.0000 O   0  0  0  0  0  0  0  0  0  0  0  0
    3.6292   -6.4616    0.0000 C   0  0  2  0  0  0  0  0  0  0  0  0
    1.8313   -6.2489    0.0000 C   0  0  2  0  0  0  0  0  0  0  0  0
    6.4116   -6.1112    0.0000 O   0  0  0  0  0  0  0  0  0  0  0  0
   -0.8885   -5.5856    0.0000 O   0  0  0  0  0  0  0  0  0  0  0  0
    3.4039   -7.8757    0.0000 C   0  0  0  0  0  0  0  0  0  0  0  0
    1.8939   -7.6838    0.0000 C   0  0  0  0  0  0  0  0  0  0  0  0
    2.1900   -8.8018    0.0000 C   0  0  0  0  0  0  0  0  0  0  0  0
    3.8544   -5.0600    0.0000 C   0  0  0  0  0  0  0  0  0  0  0  0
    1.7687   -4.8305    0.0000 C   0  0  0  0  0  0  0  0  0  0  0  0
    6.2947   -5.4605    0.0000 C   0  0  0  0  0  0  0  0  0  0  0  0
   -0.7008   -4.9474    0.0000 C   0  0  0  0  0  0  0  0  0  0  0  0
    0.5048   -4.1715    0.0000 C   0  0  1  0  0  0  0  0  0  0  0  0
    5.1852   -4.5469    0.0000 C   0  0  1  0  0  0  0  0  0  0  0  0
    4.3717   -4.4218    0.0000 C   0  0  0  0  0  0  0  0  0  0  0  0
    1.3265   -4.1339    0.0000 C   0  0  0  0  0  0  0  0  0  0  0  0
   -1.4975   -5.1977    0.0000 C   0  0  0  0  0  0  0  0  0  0  0  0
    7.0498   -5.7984    0.0000 C   0  0  0  0  0  0  0  0  0  0  0  0
   -2.1483   -6.6451    0.0000 C   0  0  0  0  0  0  0  0  0  0  0  0
    7.5337   -7.3126    0.0000 C   0  0  0  0  0  0  0  0  0  0  0  0
    2.6573   -6.0987    0.0000 C   0  0  0  0  0  0  0  0  0  0  0  0
    2.8074   -6.5367    0.0000 C   0  0  0  0  0  0  0  0  0  0  0  0
    0.0543   -3.4832    0.0000 C   0  0  0  0  0  0  0  0  0  0  0  0
    5.7108   -3.9170    0.0000 C   0  0  0  0  0  0  0  0  0  0  0  0
    0.9428   -4.8723    0.0000 H   0  0  0  0  0  0  0  0  0  0  0  0
    3.3288   -5.6982    0.0000 H   0  0  0  0  0  0  0  0  0  0  0  0
    2.2192   -5.5230    0.0000 H   0  0  0  0  0  0  0  0  0  0  0  0
  2  6  1  0  0  0  0
  3 13  1  0  0  0  0
  4  1  1  0  0  0  0
  5  1  1  0  0  0  0
  6 22  1  0  0  0  0
  7 25  1  0  0  0  0
  8  1  1  0  0  0  0
  9  2  1  0  0  0  0
 10  3  1  0  0  0  0
 11  4  1  0  0  0  0
 12  4  1  0  0  0  0
 13 15  1  0  0  0  0
 14 21  1  0  0  0  0
 15 26  1  0  0  0  0
 16  1  1  0  0  0  0
 17  2  1  0  0  0  0
 18 10  1  0  0  0  0
 19 23  1  0  0  0  0
 20  7  1  0  0  0  0
 21  5  1  0  0  0  0
 22 15  1  0  0  0  0
 23  8  1  0  0  0  0
 24  9  1  0  0  0  0
 25 14  1  0  0  0  0
 26  7  1  0  0  0  0
 27  7  1  0  0  0  0
 28  5  1  0  0  0  0
 29  6  1  0  0  0  0
 30 16  1  0  0  0  0
 31 17  1  0  0  0  0
 32 35  1  0  0  0  0
 33 16  1  0  0  0  0
 34 33  1  0  0  0  0
 35 29  1  0  0  0  0
 36 18  1  0  0  0  0
 37 30  1  0  0  0  0
 18 38  1  1  0  0  0
 19 39  1  6  0  0  0
 22 40  1  1  0  0  0
 21 41  1  6  0  0  0
 32 42  1  6  0  0  0
 33 43  1  1  0  0  0
 17 44  1  6  0  0  0
  5 45  1  1  0  0  0
  6 46  1  6  0  0  0
 28 34  1  0  0  0  0
 19 37  1  0  0  0  0
 11 19  1  0  0  0  0
 12 14  1  0  0  0  0
 20 27  1  0  0  0  0
  3  2  1  0  0  0  0
 32 17  1  0  0  0  0
 18 24  1  0  0  0  0
 31 36  1  0  0  0  0
M  END
>  <Mol Weight>
604.7713

>  <Formula>
C34H52O9

>  <chembl_id>
CHEMBL10183

$$$$

  Mrv0541 06201412482D          

 33 35  0  0  0  0            999 V2000
    2.0041   -2.7975    0.0000 C   0  0  0  0  0  0  0  0  0  0  0  0
    1.2819   -2.3799    0.0000 C   0  0  0  0  0  0  0  0  0  0  0  0
    2.0041   -3.6367    0.0000 C   0  0  0  0  0  0  0  0  0  0  0  0
    2.7223   -2.3924    0.0000 C   0  0  0  0  0  0  0  0  0  0  0  0
    0.5637   -2.7975    0.0000 C   0  0  0  0  0  0  0  0  0  0  0  0
    1.2776   -4.0501    0.0000 N   0  0  0  0  0  0  0  0  0  0  0  0
    0.5553   -3.6367    0.0000 C   0  0  0  0  0  0  0  0  0  0  0  0
    3.4363   -2.8058    0.0000 N   0  0  0  0  0  0  0  0  0  0  0  0
    2.7181   -4.0501    0.0000 O   0  0  0  0  0  0  0  0  0  0  0  0
   -0.1586   -2.3841    0.0000 C   0  0  0  0  0  0  0  0  0  0  0  0
    2.7223   -1.5657    0.0000 O   0  0  0  0  0  0  0  0  0  0  0  0
   12.0040   -1.1691    0.0000 C   0  0  0  0  0  0  0  0  0  0  0  0
    1.2819   -1.5532    0.0000 O   0  0  0  0  0  0  0  0  0  0  0  0
   -0.1586   -4.0459    0.0000 C   0  0  0  0  0  0  0  0  0  0  0  0
   12.0040   -0.3424    0.0000 O   0  0  0  0  0  0  0  0  0  0  0  0
    4.1503   -2.3924    0.0000 C   0  0  0  0  0  0  0  0  0  0  0  0
   -0.8726   -2.8058    0.0000 C   0  0  0  0  0  0  0  0  0  0  0  0
    5.5782   -1.5699    0.0000 C   0  0  0  0  0  0  0  0  0  0  0  0
   12.7180   -1.5825    0.0000 O   0  0  0  0  0  0  0  0  0  0  0  0
   -0.8726   -3.6325    0.0000 C   0  0  0  0  0  0  0  0  0  0  0  0
   -1.5866   -2.3924    0.0000 I   0  0  0  0  0  0  0  0  0  0  0  0
    4.1503   -1.5699    0.0000 C   0  0  0  0  0  0  0  0  0  0  0  0
    4.8643   -2.8100    0.0000 C   0  0  0  0  0  0  0  0  0  0  0  0
    5.5782   -2.3967    0.0000 C   0  0  0  0  0  0  0  0  0  0  0  0
    4.8643   -1.1566    0.0000 C   0  0  0  0  0  0  0  0  0  0  0  0
    6.3005   -1.1566    0.0000 O   0  0  0  0  0  0  0  0  0  0  0  0
   11.2984   -1.5825    0.0000 C   0  0  0  0  0  0  0  0  0  0  0  0
    7.0145   -1.5699    0.0000 C   0  0  0  0  0  0  0  0  0  0  0  0
   10.5844   -1.1691    0.0000 C   0  0  0  0  0  0  0  0  0  0  0  0
    7.7285   -1.1649    0.0000 C   0  0  0  0  0  0  0  0  0  0  0  0
    9.1564   -1.1691    0.0000 C   0  0  0  0  0  0  0  0  0  0  0  0
    9.8704   -1.5825    0.0000 C   0  0  0  0  0  0  0  0  0  0  0  0
    8.4425   -1.5783    0.0000 C   0  0  0  0  0  0  0  0  0  0  0  0
  2  1  2  0  0  0  0
  3  1  1  0  0  0  0
  4  1  1  0  0  0  0
  5  2  1  0  0  0  0
  6  3  2  0  0  0  0
  7  6  1  0  0  0  0
  8  4  1  0  0  0  0
  9  3  1  0  0  0  0
 10  5  2  0  0  0  0
 11  4  2  0  0  0  0
 12 27  1  0  0  0  0
 13  2  1  0  0  0  0
 14  7  2  0  0  0  0
 15 12  2  0  0  0  0
 16  8  1  0  0  0  0
 17 10  1  0  0  0  0
 18 24  1  0  0  0  0
 19 12  1  0  0  0  0
 20 14  1  0  0  0  0
 21 17  1  0  0  0  0
 22 16  2  0  0  0  0
 23 16  1  0  0  0  0
 24 23  2  0  0  0  0
 25 22  1  0  0  0  0
 26 18  1  0  0  0  0
 27 29  1  0  0  0  0
 28 26  1  0  0  0  0
 29 32  1  0  0  0  0
 30 28  1  0  0  0  0
 31 33  1  0  0  0  0
 32 31  1  0  0  0  0
 33 30  1  0  0  0  0
  7  5  1  0  0  0  0
 18 25  2  0  0  0  0
 20 17  2  0  0  0  0
M  END
>  <Mol Weight>
564.3696

>  <Formula>
C24H25IN2O6

>  <chembl_id>
CHEMBL10133

$$$$

  Mrv0541 06201412482D          

 42 46  0  0  0  0            999 V2000
    4.7598   -1.1816    0.0000 C   0  0  0  0  0  0  0  0  0  0  0  0
    4.0376   -0.7641    0.0000 C   0  0  0  0  0  0  0  0  0  0  0  0
    4.7598   -2.0209    0.0000 C   0  0  0  0  0  0  0  0  0  0  0  0
    3.3110   -2.0209    0.0000 C   0  0  0  0  0  0  0  0  0  0  0  0
    4.0333   -2.4342    0.0000 N   0  0  0  0  0  0  0  0  0  0  0  0
    5.4780   -0.7766    0.0000 C   0  0  0  0  0  0  0  0  0  0  0  0
    3.3194   -1.1816    0.0000 C   0  0  0  0  0  0  0  0  0  0  0  0
    2.5971   -2.4300    0.0000 C   0  0  0  0  0  0  0  0  0  0  0  0
    2.5971   -3.2567    0.0000 C   0  0  0  0  0  0  0  0  0  0  0  0
    6.1920   -1.1900    0.0000 N   0  0  0  0  0  0  0  0  0  0  0  0
    1.8831   -3.6618    0.0000 C   0  0  0  0  0  0  0  0  0  0  0  0
    5.4738   -2.4342    0.0000 O   0  0  0  0  0  0  0  0  0  0  0  0
    5.4780    0.0501    0.0000 O   0  0  0  0  0  0  0  0  0  0  0  0
   14.7597    0.4467    0.0000 C   0  0  0  0  0  0  0  0  0  0  0  0
    4.0376    0.0626    0.0000 O   0  0  0  0  0  0  0  0  0  0  0  0
   14.7597    1.2734    0.0000 O   0  0  0  0  0  0  0  0  0  0  0  0
    6.9060   -0.7766    0.0000 C   0  0  0  0  0  0  0  0  0  0  0  0
    1.8831   -4.4885    0.0000 C   0  0  0  0  0  0  0  0  0  0  0  0
    2.5971   -0.7683    0.0000 C   0  0  0  0  0  0  0  0  0  0  0  0
    8.3339    0.0459    0.0000 C   0  0  0  0  0  0  0  0  0  0  0  0
   15.4737    0.0334    0.0000 O   0  0  0  0  0  0  0  0  0  0  0  0
    1.8831   -2.0167    0.0000 C   0  0  0  0  0  0  0  0  0  0  0  0
    3.3194   -3.6701    0.0000 C   0  0  0  0  0  0  0  0  0  0  0  0
    7.6200   -1.1942    0.0000 C   0  0  0  0  0  0  0  0  0  0  0  0
    6.9060    0.0459    0.0000 C   0  0  0  0  0  0  0  0  0  0  0  0
    7.6200    0.4592    0.0000 C   0  0  0  0  0  0  0  0  0  0  0  0
    8.3339   -0.7808    0.0000 C   0  0  0  0  0  0  0  0  0  0  0  0
    9.0562    0.4592    0.0000 O   0  0  0  0  0  0  0  0  0  0  0  0
    1.8914   -1.1900    0.0000 C   0  0  0  0  0  0  0  0  0  0  0  0
    1.1691   -3.2484    0.0000 C   0  0  0  0  0  0  0  0  0  0  0  0
    3.3194   -4.4968    0.0000 C   0  0  0  0  0  0  0  0  0  0  0  0
   14.0541    0.0334    0.0000 C   0  0  0  0  0  0  0  0  0  0  0  0
    2.5971   -4.9018    0.0000 C   0  0  0  0  0  0  0  0  0  0  0  0
    1.1691   -4.9018    0.0000 C   0  0  0  0  0  0  0  0  0  0  0  0
    9.7702    0.0459    0.0000 C   0  0  0  0  0  0  0  0  0  0  0  0
   13.3401    0.4467    0.0000 C   0  0  0  0  0  0  0  0  0  0  0  0
   10.4759    0.4509    0.0000 C   0  0  0  0  0  0  0  0  0  0  0  0
   12.6261    0.0334    0.0000 C   0  0  0  0  0  0  0  0  0  0  0  0
   11.1982    0.0376    0.0000 C   0  0  0  0  0  0  0  0  0  0  0  0
   11.9121    0.4467    0.0000 C   0  0  0  0  0  0  0  0  0  0  0  0
    0.4551   -3.6618    0.0000 C   0  0  0  0  0  0  0  0  0  0  0  0
    0.4551   -4.4885    0.0000 C   0  0  0  0  0  0  0  0  0  0  0  0
  2  1  1  0  0  0  0
  3  1  2  0  0  0  0
  4  5  2  0  0  0  0
  5  3  1  0  0  0  0
  6  1  1  0  0  0  0
  7  2  2  0  0  0  0
  8  4  1  0  0  0  0
  9  8  1  0  0  0  0
 10  6  1  0  0  0  0
 11  9  2  0  0  0  0
 12  3  1  0  0  0  0
 13  6  2  0  0  0  0
 14 32  1  0  0  0  0
 15  2  1  0  0  0  0
 16 14  2  0  0  0  0
 17 10  1  0  0  0  0
 18 11  1  0  0  0  0
 19  7  1  0  0  0  0
 20 26  1  0  0  0  0
 21 14  1  0  0  0  0
 22  8  2  0  0  0  0
 23  9  1  0  0  0  0
 24 17  2  0  0  0  0
 25 17  1  0  0  0  0
 26 25  2  0  0  0  0
 27 24  1  0  0  0  0
 28 20  1  0  0  0  0
 29 19  2  0  0  0  0
 30 11  1  0  0  0  0
 31 23  2  0  0  0  0
 32 36  1  0  0  0  0
 33 31  1  0  0  0  0
 34 18  1  0  0  0  0
 35 28  1  0  0  0  0
 36 38  1  0  0  0  0
 37 35  1  0  0  0  0
 38 40  1  0  0  0  0
 39 37  1  0  0  0  0
 40 39  1  0  0  0  0
 41 30  2  0  0  0  0
 42 41  1  0  0  0  0
  4  7  1  0  0  0  0
 22 29  1  0  0  0  0
 20 27  2  0  0  0  0
 18 33  2  0  0  0  0
 42 34  2  0  0  0  0
M  END
>  <Mol Weight>
564.6277

>  <Formula>
C34H32N2O6

>  <chembl_id>
CHEMBL10076

$$$$

  Mrv0541 06201412482D          

 45 52  0  0  1  0            999 V2000
    4.9599   -5.9568    0.0000 C   0  0  0  0  0  0  0  0  0  0  0  0
    0.5674   -5.5981    0.0000 C   0  0  0  0  0  0  0  0  0  0  0  0
    0.1919   -6.3240    0.0000 C   0  0  0  0  0  0  0  0  0  0  0  0
    5.2477   -6.7244    0.0000 C   0  0  0  0  0  0  0  0  0  0  0  0
    4.1465   -5.8234    0.0000 C   0  0  2  0  0  0  0  0  0  0  0  0
    1.3933   -5.5606    0.0000 C   0  0  2  0  0  0  0  0  0  0  0  0
    5.7108   -6.2989    0.0000 O   0  0  0  0  0  0  0  0  0  0  0  0
   -0.2211   -5.8484    0.0000 O   0  0  0  0  0  0  0  0  0  0  0  0
   -0.6382   -6.3698    0.0000 O   0  0  0  0  0  0  0  0  0  0  0  0
    6.0695   -6.8621    0.0000 O   0  0  0  0  0  0  0  0  0  0  0  0
    4.7304   -7.3710    0.0000 O   0  0  0  0  0  0  0  0  0  0  0  0
    0.6299   -7.0248    0.0000 O   0  0  0  0  0  0  0  0  0  0  0  0
    3.9212   -7.2333    0.0000 C   0  0  0  0  0  0  0  0  0  0  0  0
    1.4559   -6.9830    0.0000 C   0  0  0  0  0  0  0  0  0  0  0  0
    5.4813   -5.3228    0.0000 C   0  0  0  0  0  0  0  0  0  0  0  0
    0.1251   -4.9056    0.0000 C   0  0  1  0  0  0  0  0  0  0  0  0
   -1.4475   -6.1946    0.0000 C   0  0  1  0  0  0  0  0  0  0  0  0
    6.8871   -6.7828    0.0000 C   0  0  1  0  0  0  0  0  0  0  0  0
    3.6292   -6.4616    0.0000 C   0  0  2  0  0  0  0  0  0  0  0  0
    1.8313   -6.2489    0.0000 C   0  0  2  0  0  0  0  0  0  0  0  0
    6.4116   -6.1112    0.0000 O   0  0  0  0  0  0  0  0  0  0  0  0
   -0.8885   -5.5856    0.0000 O   0  0  0  0  0  0  0  0  0  0  0  0
    3.4039   -7.8757    0.0000 C   0  0  0  0  0  0  0  0  0  0  0  0
    1.8939   -7.6838    0.0000 C   0  0  0  0  0  0  0  0  0  0  0  0
    3.8544   -5.0600    0.0000 C   0  0  0  0  0  0  0  0  0  0  0  0
    1.7687   -4.8305    0.0000 C   0  0  0  0  0  0  0  0  0  0  0  0
    2.6072   -8.0968    0.0000 C   0  0  0  0  0  0  0  0  0  0  0  0
    6.2947   -5.4605    0.0000 C   0  0  0  0  0  0  0  0  0  0  0  0
   -0.7008   -4.9474    0.0000 C   0  0  0  0  0  0  0  0  0  0  0  0
    0.5048   -4.1715    0.0000 C   0  0  1  0  0  0  0  0  0  0  0  0
    5.1852   -4.5469    0.0000 C   0  0  1  0  0  0  0  0  0  0  0  0
    4.3717   -4.4218    0.0000 C   0  0  0  0  0  0  0  0  0  0  0  0
    1.3265   -4.1339    0.0000 C   0  0  0  0  0  0  0  0  0  0  0  0
   -1.4975   -5.1977    0.0000 C   0  0  0  0  0  0  0  0  0  0  0  0
    7.0498   -5.7984    0.0000 C   0  0  0  0  0  0  0  0  0  0  0  0
    2.4946   -8.9144    0.0000 O   0  0  0  0  0  0  0  0  0  0  0  0
    7.5337   -7.3126    0.0000 C   0  0  0  0  0  0  0  0  0  0  0  0
   -2.1483   -6.6451    0.0000 C   0  0  0  0  0  0  0  0  0  0  0  0
    2.8074   -6.5367    0.0000 C   0  0  0  0  0  0  0  0  0  0  0  0
    2.6573   -6.0987    0.0000 C   0  0  0  0  0  0  0  0  0  0  0  0
    5.7108   -3.9170    0.0000 C   0  0  0  0  0  0  0  0  0  0  0  0
    0.0543   -3.4832    0.0000 C   0  0  0  0  0  0  0  0  0  0  0  0
    3.3288   -5.6982    0.0000 H   0  0  0  0  0  0  0  0  0  0  0  0
    2.2192   -5.5230    0.0000 H   0  0  0  0  0  0  0  0  0  0  0  0
    0.9428   -4.8723    0.0000 H   0  0  0  0  0  0  0  0  0  0  0  0
  2  6  1  0  0  0  0
  3 12  1  0  0  0  0
  4  1  1  0  0  0  0
  5  1  1  0  0  0  0
  6 20  1  0  0  0  0
  7  1  1  0  0  0  0
  8  2  1  0  0  0  0
  9  3  1  0  0  0  0
 10  4  1  0  0  0  0
 11  4  1  0  0  0  0
 12 14  1  0  0  0  0
 13 19  1  0  0  0  0
 14 24  1  0  0  0  0
 15  1  1  0  0  0  0
 16  2  1  0  0  0  0
 17  9  1  0  0  0  0
 18 21  1  0  0  0  0
 19  5  1  0  0  0  0
 20 14  1  0  0  0  0
 21  7  1  0  0  0  0
 22  8  1  0  0  0  0
 23 13  1  0  0  0  0
 24 27  1  0  0  0  0
 25  5  1  0  0  0  0
 26  6  1  0  0  0  0
 27 23  1  0  0  0  0
 28 15  1  0  0  0  0
 29 16  1  0  0  0  0
 30 33  1  0  0  0  0
 31 15  1  0  0  0  0
 32 31  1  0  0  0  0
 33 26  1  0  0  0  0
 34 17  1  0  0  0  0
 35 28  1  0  0  0  0
 36 27  2  0  0  0  0
 18 37  1  6  0  0  0
 17 38  1  1  0  0  0
 19 39  1  6  0  0  0
 20 40  1  1  0  0  0
 31 41  1  1  0  0  0
 30 42  1  6  0  0  0
  5 43  1  1  0  0  0
  6 44  1  6  0  0  0
 16 45  1  6  0  0  0
 25 32  1  0  0  0  0
 18 35  1  0  0  0  0
 10 18  1  0  0  0  0
 11 13  1  0  0  0  0
  3  2  1  0  0  0  0
 30 16  1  0  0  0  0
 17 22  1  0  0  0  0
 29 34  1  0  0  0  0
M  END
>  <Mol Weight>
590.7447

>  <Formula>
C33H50O9

>  <chembl_id>
CHEMBL10059

$$$$

  Mrv0541 06201412482D          

 41 44  0  0  0  0            999 V2000
    4.1290   -1.6466    0.0000 C   0  0  0  0  0  0  0  0  0  0  0  0
    5.2950   -2.8126    0.0000 C   0  0  0  0  0  0  0  0  0  0  0  0
    3.9117   -2.4490    0.0000 N   0  0  0  0  0  0  0  0  0  0  0  0
    5.5082   -2.0227    0.0000 N   0  0  0  0  0  0  0  0  0  0  0  0
    4.4926   -3.0341    0.0000 C   0  0  0  0  0  0  0  0  0  0  0  0
    4.9272   -1.4335    0.0000 C   0  0  0  0  0  0  0  0  0  0  0  0
   -0.2340   -1.2830    0.0000 C   0  0  0  0  0  0  0  0  0  0  0  0
   -1.0364   -1.4920    0.0000 C   0  0  0  0  0  0  0  0  0  0  0  0
    3.5523   -1.0657    0.0000 C   0  0  0  0  0  0  0  0  0  0  0  0
    5.8926   -3.3768    0.0000 C   0  0  0  0  0  0  0  0  0  0  0  0
    0.3510   -1.8806    0.0000 N   0  0  0  0  0  0  0  0  0  0  0  0
   -1.7260   -1.0323    0.0000 S   0  0  0  0  0  0  0  0  0  0  0  0
    6.8121  -12.0402    0.0000 C   0  0  0  0  0  0  0  0  0  0  0  0
    5.1446   -0.6311    0.0000 O   0  0  0  0  0  0  0  0  0  0  0  0
    4.2670   -3.8365    0.0000 O   0  0  0  0  0  0  0  0  0  0  0  0
   -1.2621   -2.2860    0.0000 C   0  0  0  0  0  0  0  0  0  0  0  0
   -0.0083   -0.5015    0.0000 O   0  0  0  0  0  0  0  0  0  0  0  0
   -2.3779   -1.5463    0.0000 C   0  0  0  0  0  0  0  0  0  0  0  0
   -2.0812   -2.3194    0.0000 C   0  0  0  0  0  0  0  0  0  0  0  0
    7.4139  -12.6044    0.0000 O   0  0  0  0  0  0  0  0  0  0  0  0
    2.7582   -1.2705    0.0000 C   0  0  0  0  0  0  0  0  0  0  0  0
    5.6962   -4.1750    0.0000 C   0  0  0  0  0  0  0  0  0  0  0  0
    1.1577   -1.6717    0.0000 C   0  0  0  0  0  0  0  0  0  0  0  0
    5.3159   -5.7798    0.0000 C   0  0  0  0  0  0  0  0  0  0  0  0
    6.0222  -12.2867    0.0000 O   0  0  0  0  0  0  0  0  0  0  0  0
    6.2980   -4.7434    0.0000 C   0  0  0  0  0  0  0  0  0  0  0  0
    2.5326   -2.0561    0.0000 C   0  0  0  0  0  0  0  0  0  0  0  0
    4.9064   -4.4132    0.0000 C   0  0  0  0  0  0  0  0  0  0  0  0
    2.1815   -0.6770    0.0000 C   0  0  0  0  0  0  0  0  0  0  0  0
    1.3833   -0.8776    0.0000 C   0  0  0  0  0  0  0  0  0  0  0  0
    1.7302   -2.2567    0.0000 C   0  0  0  0  0  0  0  0  0  0  0  0
    4.7141   -5.2156    0.0000 C   0  0  0  0  0  0  0  0  0  0  0  0
    6.1100   -5.5332    0.0000 C   0  0  0  0  0  0  0  0  0  0  0  0
    5.1195   -6.5864    0.0000 O   0  0  0  0  0  0  0  0  0  0  0  0
    6.9959  -11.2378    0.0000 C   0  0  0  0  0  0  0  0  0  0  0  0
    5.7296   -7.1589    0.0000 C   0  0  0  0  0  0  0  0  0  0  0  0
    6.3858  -10.6819    0.0000 C   0  0  0  0  0  0  0  0  0  0  0  0
    5.5458   -7.9530    0.0000 C   0  0  0  0  0  0  0  0  0  0  0  0
    6.5738   -9.8795    0.0000 C   0  0  0  0  0  0  0  0  0  0  0  0
    6.1476   -8.5172    0.0000 C   0  0  0  0  0  0  0  0  0  0  0  0
    5.9678   -9.3196    0.0000 C   0  0  0  0  0  0  0  0  0  0  0  0
  2  4  1  0  0  0  0
  3  1  1  0  0  0  0
  4  6  1  0  0  0  0
  5  3  1  0  0  0  0
  6  1  1  0  0  0  0
  7 11  1  0  0  0  0
  8  7  1  0  0  0  0
  9  1  2  0  0  0  0
 10  2  2  0  0  0  0
 11 23  1  0  0  0  0
 12  8  1  0  0  0  0
 13 35  1  0  0  0  0
 14  6  2  0  0  0  0
 15  5  2  0  0  0  0
 16  8  2  0  0  0  0
 17  7  2  0  0  0  0
 18 12  1  0  0  0  0
 19 16  1  0  0  0  0
 20 13  2  0  0  0  0
 21  9  1  0  0  0  0
 22 10  1  0  0  0  0
 23 30  1  0  0  0  0
 24 32  2  0  0  0  0
 25 13  1  0  0  0  0
 26 22  1  0  0  0  0
 27 21  2  0  0  0  0
 28 22  2  0  0  0  0
 29 21  1  0  0  0  0
 30 29  2  0  0  0  0
 31 27  1  0  0  0  0
 32 28  1  0  0  0  0
 33 26  2  0  0  0  0
 34 24  1  0  0  0  0
 35 37  1  0  0  0  0
 36 34  1  0  0  0  0
 37 39  1  0  0  0  0
 38 36  1  0  0  0  0
 39 41  1  0  0  0  0
 40 38  1  0  0  0  0
 41 40  1  0  0  0  0
  2  5  1  0  0  0  0
 31 23  2  0  0  0  0
 24 33  1  0  0  0  0
 19 18  2  0  0  0  0
M  END
>  <Mol Weight>
573.659

>  <Formula>
C31H31N3O6S

>  <chembl_id>
CHEMBL10062

$$$$

  Mrv0541 06201412482D          

 43 48  0  0  0  0            999 V2000
    1.7297   -3.4676    0.0000 C   0  0  0  0  0  0  0  0  0  0  0  0
    1.0045   -3.0425    0.0000 C   0  0  0  0  0  0  0  0  0  0  0  0
    1.7297   -4.3012    0.0000 C   0  0  0  0  0  0  0  0  0  0  0  0
    0.2918   -3.4676    0.0000 C   0  0  0  0  0  0  0  0  0  0  0  0
    2.4424   -3.0550    0.0000 C   0  0  0  0  0  0  0  0  0  0  0  0
    1.0045   -4.7138    0.0000 N   0  0  0  0  0  0  0  0  0  0  0  0
   -1.5254   -2.7424    0.0000 C   0  0  0  0  0  0  0  0  0  0  0  0
   12.8285   -1.1170    0.0000 N   0  0  0  0  0  0  0  0  0  0  0  0
   12.0032   -1.0753    0.0000 N   0  0  0  0  0  0  0  0  0  0  0  0
   -2.3464   -2.6299    0.0000 S   0  0  0  0  0  0  0  0  0  0  0  0
   13.0452   -1.9130    0.0000 N   0  0  0  0  0  0  0  0  0  0  0  0
    0.2876   -4.3012    0.0000 C   0  0  0  0  0  0  0  0  0  0  0  0
   11.7074   -1.8422    0.0000 N   0  0  0  0  0  0  0  0  0  0  0  0
   -1.1628   -2.0005    0.0000 C   0  0  0  0  0  0  0  0  0  0  0  0
   -0.4251   -3.0550    0.0000 C   0  0  0  0  0  0  0  0  0  0  0  0
   12.3575   -2.3548    0.0000 C   0  0  0  0  0  0  0  0  0  0  0  0
   -1.1336   -3.4676    0.0000 C   0  0  0  0  0  0  0  0  0  0  0  0
    3.1551   -3.4676    0.0000 N   0  0  0  0  0  0  0  0  0  0  0  0
   -2.4882   -1.8172    0.0000 C   0  0  0  0  0  0  0  0  0  0  0  0
   -1.7588   -1.4254    0.0000 C   0  0  0  0  0  0  0  0  0  0  0  0
    2.4424   -4.7180    0.0000 O   0  0  0  0  0  0  0  0  0  0  0  0
    2.4424   -2.2298    0.0000 O   0  0  0  0  0  0  0  0  0  0  0  0
   -0.4251   -4.7055    0.0000 C   0  0  0  0  0  0  0  0  0  0  0  0
    1.0045   -2.2173    0.0000 O   0  0  0  0  0  0  0  0  0  0  0  0
   -1.1378   -4.2929    0.0000 C   0  0  0  0  0  0  0  0  0  0  0  0
    3.8760   -3.0550    0.0000 C   0  0  0  0  0  0  0  0  0  0  0  0
    5.3014   -2.2423    0.0000 C   0  0  0  0  0  0  0  0  0  0  0  0
   11.0030   -2.2548    0.0000 C   0  0  0  0  0  0  0  0  0  0  0  0
    3.8677   -2.2381    0.0000 C   0  0  0  0  0  0  0  0  0  0  0  0
    4.5804   -3.4759    0.0000 C   0  0  0  0  0  0  0  0  0  0  0  0
    5.3014   -3.0675    0.0000 C   0  0  0  0  0  0  0  0  0  0  0  0
    4.5804   -1.8255    0.0000 C   0  0  0  0  0  0  0  0  0  0  0  0
    6.0183   -1.8297    0.0000 O   0  0  0  0  0  0  0  0  0  0  0  0
   -3.1884   -1.3796    0.0000 C   0  0  0  0  0  0  0  0  0  0  0  0
   -1.7380   -0.5919    0.0000 C   0  0  0  0  0  0  0  0  0  0  0  0
    6.7310   -2.2423    0.0000 C   0  0  0  0  0  0  0  0  0  0  0  0
   10.2903   -1.8422    0.0000 C   0  0  0  0  0  0  0  0  0  0  0  0
    7.4395   -1.8297    0.0000 C   0  0  0  0  0  0  0  0  0  0  0  0
    8.1522   -2.2423    0.0000 C   0  0  0  0  0  0  0  0  0  0  0  0
    8.8649   -1.8380    0.0000 C   0  0  0  0  0  0  0  0  0  0  0  0
    9.5776   -2.2506    0.0000 C   0  0  0  0  0  0  0  0  0  0  0  0
   -2.4382   -0.1667    0.0000 C   0  0  0  0  0  0  0  0  0  0  0  0
   -3.1592   -0.5544    0.0000 C   0  0  0  0  0  0  0  0  0  0  0  0
  2  1  2  0  0  0  0
  3  1  1  0  0  0  0
  4  2  1  0  0  0  0
  5  1  1  0  0  0  0
  6  3  2  0  0  0  0
  7 17  1  0  0  0  0
  8  9  2  0  0  0  0
  9 13  1  0  0  0  0
 10  7  1  0  0  0  0
 11 16  2  0  0  0  0
 12  6  1  0  0  0  0
 13 28  1  0  0  0  0
 14  7  2  0  0  0  0
 15  4  2  0  0  0  0
 16 13  1  0  0  0  0
 17 15  1  0  0  0  0
 18  5  1  0  0  0  0
 19 10  1  0  0  0  0
 20 14  1  0  0  0  0
 21  3  1  0  0  0  0
 22  5  2  0  0  0  0
 23 12  2  0  0  0  0
 24  2  1  0  0  0  0
 25 23  1  0  0  0  0
 26 18  1  0  0  0  0
 27 31  1  0  0  0  0
 28 37  1  0  0  0  0
 29 26  2  0  0  0  0
 30 26  1  0  0  0  0
 31 30  2  0  0  0  0
 32 29  1  0  0  0  0
 33 27  1  0  0  0  0
 34 19  2  0  0  0  0
 35 20  2  0  0  0  0
 36 33  1  0  0  0  0
 37 41  1  0  0  0  0
 38 36  1  0  0  0  0
 39 38  1  0  0  0  0
 40 39  1  0  0  0  0
 41 40  1  0  0  0  0
 42 35  1  0  0  0  0
 43 34  1  0  0  0  0
 12  4  1  0  0  0  0
 32 27  2  0  0  0  0
 25 17  2  0  0  0  0
 19 20  1  0  0  0  0
 43 42  2  0  0  0  0
  8 11  1  0  0  0  0
M  END
>  <Mol Weight>
594.683

>  <Formula>
C32H30N6O4S

>  <chembl_id>
CHEMBL10004

$$$$

  Mrv0541 06201412482D          

 42 45  0  0  0  0            999 V2000
    0.4875    1.7958    0.0000 N   0  0  0  0  0  0  0  0  0  0  0  0
    0.4917    0.9708    0.0000 C   0  0  0  0  0  0  0  0  0  0  0  0
    1.2042    0.5583    0.0000 N   0  0  0  0  0  0  0  0  0  0  0  0
    1.2042    2.2083    0.0000 C   0  0  0  0  0  0  0  0  0  0  0  0
    1.9167    1.7958    0.0000 C   0  0  0  0  0  0  0  0  0  0  0  0
    1.9167    0.9708    0.0000 C   0  0  0  0  0  0  0  0  0  0  0  0
    1.9250   -0.6792    0.0000 C   0  0  0  0  0  0  0  0  0  0  0  0
    1.2042   -0.2667    0.0000 C   0  0  0  0  0  0  0  0  0  0  0  0
    1.9250   -1.5042    0.0000 N   0  0  0  0  0  0  0  0  0  0  0  0
   -0.2208    0.5583    0.0000 S   0  0  0  0  0  0  0  0  0  0  0  0
    1.2042    3.0333    0.0000 O   0  0  0  0  0  0  0  0  0  0  0  0
    2.6417   -1.9167    0.0000 C   0  0  0  0  0  0  0  0  0  0  0  0
    4.7792   -0.6792    0.0000 C   0  0  0  0  0  0  0  0  0  0  0  0
    5.4917   -0.2667    0.0000 C   0  0  0  0  0  0  0  0  0  0  0  0
    2.6375   -0.2667    0.0000 O   0  0  0  0  0  0  0  0  0  0  0  0
    1.2125   -1.9167    0.0000 C   0  0  0  0  0  0  0  0  0  0  0  0
    4.0542   -0.2667    0.0000 C   0  0  0  0  0  0  0  0  0  0  0  0
    4.7792   -1.5042    0.0000 C   0  0  0  0  0  0  0  0  0  0  0  0
    6.2042   -0.6792    0.0000 C   0  0  0  0  0  0  0  0  0  0  0  0
    5.4875    0.5583    0.0000 C   0  0  0  0  0  0  0  0  0  0  0  0
    3.3542   -1.5042    0.0000 C   0  0  0  0  0  0  0  0  0  0  0  0
   -0.9375    0.9708    0.0000 C   0  0  0  0  0  0  0  0  0  0  0  0
   -0.2208   -1.9167    0.0000 N   0  0  0  0  0  0  0  0  0  0  0  0
    6.9167    0.5583    0.0000 C   0  0  0  0  0  0  0  0  0  0  0  0
    0.4917   -1.5042    0.0000 C   0  0  0  0  0  0  0  0  0  0  0  0
    2.6375    2.2083    0.0000 C   0  0  0  0  0  0  0  0  0  0  0  0
   -3.0833   -0.2792    0.0000 C   0  0  0  0  0  0  0  0  0  0  0  0
   -1.6500    0.5500    0.0000 C   0  0  0  0  0  0  0  0  0  0  0  0
    3.3500   -0.6792    0.0000 C   0  0  0  0  0  0  0  0  0  0  0  0
    4.0667   -1.9167    0.0000 C   0  0  0  0  0  0  0  0  0  0  0  0
    6.9167   -0.2667    0.0000 C   0  0  0  0  0  0  0  0  0  0  0  0
    6.1917    0.9708    0.0000 C   0  0  0  0  0  0  0  0  0  0  0  0
    7.6292    0.9750    0.0000 Cl  0  0  0  0  0  0  0  0  0  0  0  0
   -3.7958   -0.6917    0.0000 F   0  0  0  0  0  0  0  0  0  0  0  0
   -2.3708   -0.6917    0.0000 C   0  0  0  0  0  0  0  0  0  0  0  0
   -3.0833    0.5500    0.0000 C   0  0  0  0  0  0  0  0  0  0  0  0
   -1.6500   -0.2792    0.0000 C   0  0  0  0  0  0  0  0  0  0  0  0
   -2.3708    0.9625    0.0000 C   0  0  0  0  0  0  0  0  0  0  0  0
   -0.2208   -2.7417    0.0000 C   0  0  0  0  0  0  0  0  0  0  0  0
   -0.9333   -1.5042    0.0000 C   0  0  0  0  0  0  0  0  0  0  0  0
   -1.6458   -1.9167    0.0000 C   0  0  0  0  0  0  0  0  0  0  0  0
   -0.9333   -3.1542    0.0000 C   0  0  0  0  0  0  0  0  0  0  0  0
  2  1  2  0  0  0  0
  3  2  1  0  0  0  0
  4  1  1  0  0  0  0
  5  4  1  0  0  0  0
  6  5  2  0  0  0  0
  7  8  1  0  0  0  0
  8  3  1  0  0  0  0
  9  7  1  0  0  0  0
 10  2  1  0  0  0  0
 11  4  2  0  0  0  0
 12  9  1  0  0  0  0
 13 18  2  0  0  0  0
 14 13  1  0  0  0  0
 15  7  2  0  0  0  0
 16  9  1  0  0  0  0
 17 29  2  0  0  0  0
 18 30  1  0  0  0  0
 19 14  2  0  0  0  0
 20 14  1  0  0  0  0
 21 12  1  0  0  0  0
 22 10  1  0  0  0  0
 23 25  1  0  0  0  0
 24 32  1  0  0  0  0
 25 16  1  0  0  0  0
 26  5  1  0  0  0  0
 27 36  2  0  0  0  0
 28 22  1  0  0  0  0
 29 21  1  0  0  0  0
 30 21  2  0  0  0  0
 31 19  1  0  0  0  0
 32 20  2  0  0  0  0
 33 24  1  0  0  0  0
 34 27  1  0  0  0  0
 35 37  2  0  0  0  0
 36 38  1  0  0  0  0
 37 28  1  0  0  0  0
 38 28  2  0  0  0  0
 39 23  1  0  0  0  0
 40 23  1  0  0  0  0
 41 40  1  0  0  0  0
 42 39  1  0  0  0  0
  6  3  1  0  0  0  0
 35 27  1  0  0  0  0
 13 17  1  0  0  0  0
 24 31  2  0  0  0  0
M  END
>  <Mol Weight>
607.181

>  <Formula>
C33H36ClFN4O2S

>  <chembl_id>
CHEMBL10440

$$$$

  Mrv0541 06201412482D          

 38 42  0  0  1  0            999 V2000
    5.0939   -0.8420    0.0000 C   0  0  0  0  0  0  0  0  0  0  0  0
    5.8046   -0.4231    0.0000 C   0  0  2  0  0  0  0  0  0  0  0  0
    3.6470   -1.6670    0.0000 C   0  0  2  0  0  0  0  0  0  0  0  0
    2.9446   -2.0858    0.0000 C   0  0  0  0  0  0  0  0  0  0  0  0
    5.0896   -1.6670    0.0000 C   0  0  0  0  0  0  0  0  0  0  0  0
    4.3704   -2.0858    0.0000 C   0  0  0  0  0  0  0  0  0  0  0  0
    2.9446   -2.9065    0.0000 C   0  0  0  0  0  0  0  0  0  0  0  0
    6.4646   -0.0296    0.0000 O   0  0  0  0  0  0  0  0  0  0  0  0
    3.6470   -0.8377    0.0000 C   0  0  0  0  0  0  0  0  0  0  0  0
    4.3788   -0.4231    0.0000 C   0  0  0  0  0  0  0  0  0  0  0  0
    6.5281   -0.8504    0.0000 C   0  0  0  0  0  0  0  0  0  0  0  0
    7.2896    0.0973    0.0000 C   0  0  0  0  0  0  0  0  0  0  0  0
    2.2381   -1.6754    0.0000 C   0  0  0  0  0  0  0  0  0  0  0  0
    6.5238   -1.6796    0.0000 C   0  0  0  0  0  0  0  0  0  0  0  0
    5.8046    0.3892    0.0000 C   0  0  0  0  0  0  0  0  0  0  0  0
    8.0850   -0.2538    0.0000 C   0  0  0  0  0  0  0  0  0  0  0  0
    2.2381   -3.3127    0.0000 C   0  0  0  0  0  0  0  0  0  0  0  0
    4.3704   -2.9065    0.0000 C   0  0  0  0  0  0  0  0  0  0  0  0
    8.2670   -1.1042    0.0000 S   0  0  0  0  0  0  0  0  0  0  0  0
    1.5358   -2.0858    0.0000 C   0  0  0  0  0  0  0  0  0  0  0  0
    1.5358   -2.9065    0.0000 C   0  0  0  0  0  0  0  0  0  0  0  0
    3.6470   -3.3170    0.0000 C   0  0  0  0  0  0  0  0  0  0  0  0
    7.2135    2.0519    0.0000 C   0  0  0  0  0  0  0  0  0  0  0  0
    7.3150    0.8250    0.0000 O   0  0  0  0  0  0  0  0  0  0  0  0
    8.8381    0.1861    0.0000 C   0  0  0  0  0  0  0  0  0  0  0  0
    9.1385   -1.1846    0.0000 C   0  0  0  0  0  0  0  0  0  0  0  0
    3.6470   -2.4793    0.0000 Cl  0  0  0  0  0  0  0  0  0  0  0  0
    6.4985    0.8080    0.0000 C   0  0  0  0  0  0  0  0  0  0  0  0
    5.0896    0.7954    0.0000 O   0  0  0  0  0  0  0  0  0  0  0  0
    9.4854   -0.3808    0.0000 C   0  0  0  0  0  0  0  0  0  0  0  0
    6.4900    1.6246    0.0000 O   0  0  0  0  0  0  0  0  0  0  0  0
    7.2008    2.8896    0.0000 O   0  0  0  0  0  0  0  0  0  0  0  0
    0.8293   -3.3043    0.0000 O   0  0  0  0  0  0  0  0  0  0  0  0
    2.9446   -0.4231    0.0000 Cl  0  0  0  0  0  0  0  0  0  0  0  0
    5.0896   -0.0296    0.0000 C   0  0  0  0  0  0  0  0  0  0  0  0
    2.9362   -1.2692    0.0000 C   0  0  0  0  0  0  0  0  0  0  0  0
    7.3404   -0.8504    0.0000 C   0  0  0  0  0  0  0  0  0  0  0  0
    7.9454    1.6373    0.0000 C   0  0  0  0  0  0  0  0  0  0  0  0
  2  1  1  0  0  0  0
  3  9  1  0  0  0  0
  4  3  1  0  0  0  0
  5  1  1  0  0  0  0
  6  5  1  0  0  0  0
  7  4  1  0  0  0  0
  2  8  1  6  0  0  0
  9 10  1  0  0  0  0
 10  1  1  0  0  0  0
 11  2  1  0  0  0  0
 12  8  1  0  0  0  0
 13  4  1  0  0  0  0
 14  5  1  0  0  0  0
 15  2  1  0  0  0  0
 16 12  1  0  0  0  0
 17  7  2  0  0  0  0
 18  6  1  0  0  0  0
 19 16  1  0  0  0  0
 20 13  2  0  0  0  0
 21 20  1  0  0  0  0
 22 18  1  0  0  0  0
 23 31  1  0  0  0  0
 24 12  2  0  0  0  0
 25 16  2  0  0  0  0
 26 19  1  0  0  0  0
  3 27  1  6  0  0  0
 28 15  1  0  0  0  0
 29 15  2  0  0  0  0
 30 25  1  0  0  0  0
 31 28  1  0  0  0  0
 32 23  2  0  0  0  0
 33 21  2  0  0  0  0
 34  9  1  0  0  0  0
 35  1  1  0  0  0  0
 36  4  1  0  0  0  0
 11 37  1  0  0  0  0
 38 23  1  0  0  0  0
 14 11  1  0  0  0  0
  6  3  1  0  0  0  0
  7 22  1  0  0  0  0
 26 30  2  0  0  0  0
 17 21  1  0  0  0  0
M  END
>  <Mol Weight>
579.532

>  <Formula>
C29H32Cl2O6S

>  <chembl_id>
CHEMBL10461

$$$$

  Mrv0541 06201412482D          

 33 35  0  0  0  0            999 V2000
    5.2025   -0.7057    0.0000 C   0  0  0  0  0  0  0  0  0  0  0  0
    4.4843   -0.2798    0.0000 C   0  0  0  0  0  0  0  0  0  0  0  0
    5.2025   -1.5407    0.0000 C   0  0  0  0  0  0  0  0  0  0  0  0
    3.7620   -0.7057    0.0000 C   0  0  0  0  0  0  0  0  0  0  0  0
    5.9164   -0.2923    0.0000 C   0  0  0  0  0  0  0  0  0  0  0  0
    4.4760   -1.9540    0.0000 N   0  0  0  0  0  0  0  0  0  0  0  0
    3.7620   -1.5407    0.0000 C   0  0  0  0  0  0  0  0  0  0  0  0
    6.6387   -0.7057    0.0000 N   0  0  0  0  0  0  0  0  0  0  0  0
    3.0480   -0.2923    0.0000 C   0  0  0  0  0  0  0  0  0  0  0  0
    5.9164   -1.9583    0.0000 O   0  0  0  0  0  0  0  0  0  0  0  0
    5.9164    0.5344    0.0000 O   0  0  0  0  0  0  0  0  0  0  0  0
   15.2107    0.9227    0.0000 C   0  0  0  0  0  0  0  0  0  0  0  0
    4.4843    0.5469    0.0000 O   0  0  0  0  0  0  0  0  0  0  0  0
   15.2065    1.7494    0.0000 O   0  0  0  0  0  0  0  0  0  0  0  0
    7.3569   -0.2923    0.0000 C   0  0  0  0  0  0  0  0  0  0  0  0
    3.0480    0.5344    0.0000 I   0  0  0  0  0  0  0  0  0  0  0  0
    8.7849    0.5219    0.0000 C   0  0  0  0  0  0  0  0  0  0  0  0
   15.9246    0.5136    0.0000 O   0  0  0  0  0  0  0  0  0  0  0  0
    3.0480   -1.9457    0.0000 C   0  0  0  0  0  0  0  0  0  0  0  0
    8.0667   -0.7140    0.0000 C   0  0  0  0  0  0  0  0  0  0  0  0
    7.3527    0.5261    0.0000 C   0  0  0  0  0  0  0  0  0  0  0  0
    8.0667    0.9394    0.0000 C   0  0  0  0  0  0  0  0  0  0  0  0
    8.7849   -0.3048    0.0000 C   0  0  0  0  0  0  0  0  0  0  0  0
    9.4988    0.9352    0.0000 O   0  0  0  0  0  0  0  0  0  0  0  0
    2.3340   -1.5324    0.0000 C   0  0  0  0  0  0  0  0  0  0  0  0
    2.3340   -0.7057    0.0000 C   0  0  0  0  0  0  0  0  0  0  0  0
   14.4967    0.5094    0.0000 C   0  0  0  0  0  0  0  0  0  0  0  0
   10.2128    0.5219    0.0000 C   0  0  0  0  0  0  0  0  0  0  0  0
   13.7827    0.9227    0.0000 C   0  0  0  0  0  0  0  0  0  0  0  0
   10.9268    0.9352    0.0000 C   0  0  0  0  0  0  0  0  0  0  0  0
   11.6408    0.5219    0.0000 C   0  0  0  0  0  0  0  0  0  0  0  0
   12.3548    0.9269    0.0000 C   0  0  0  0  0  0  0  0  0  0  0  0
   13.0687    0.5136    0.0000 C   0  0  0  0  0  0  0  0  0  0  0  0
  2  1  2  0  0  0  0
  3  1  1  0  0  0  0
  4  2  1  0  0  0  0
  5  1  1  0  0  0  0
  6  3  2  0  0  0  0
  7  6  1  0  0  0  0
  8  5  1  0  0  0  0
  9  4  2  0  0  0  0
 10  3  1  0  0  0  0
 11  5  2  0  0  0  0
 12 27  1  0  0  0  0
 13  2  1  0  0  0  0
 14 12  2  0  0  0  0
 15  8  1  0  0  0  0
 16  9  1  0  0  0  0
 17 22  1  0  0  0  0
 18 12  1  0  0  0  0
 19  7  2  0  0  0  0
 20 15  2  0  0  0  0
 21 15  1  0  0  0  0
 22 21  2  0  0  0  0
 23 20  1  0  0  0  0
 24 17  1  0  0  0  0
 25 19  1  0  0  0  0
 26  9  1  0  0  0  0
 27 29  1  0  0  0  0
 28 24  1  0  0  0  0
 29 33  1  0  0  0  0
 30 28  1  0  0  0  0
 31 30  1  0  0  0  0
 32 31  1  0  0  0  0
 33 32  1  0  0  0  0
  7  4  1  0  0  0  0
 25 26  2  0  0  0  0
 17 23  2  0  0  0  0
M  END
>  <Mol Weight>
564.3696

>  <Formula>
C24H25IN2O6

>  <chembl_id>
CHEMBL10462

$$$$

  Mrv0541 06201412482D          

 43 49  0  0  0  0            999 V2000
    3.5270   -3.3186    0.0000 N   0  0  0  0  0  0  0  0  0  0  0  0
    3.0392   -2.6515    0.0000 C   0  0  0  0  0  0  0  0  0  0  0  0
    3.5270   -1.9803    0.0000 N   0  0  0  0  0  0  0  0  0  0  0  0
    7.1541   -4.7319    0.0000 N   0  0  0  0  0  0  0  0  0  0  0  0
    6.4454   -4.3150    0.0000 N   0  0  0  0  0  0  0  0  0  0  0  0
    4.3108   -3.0685    0.0000 C   0  0  0  0  0  0  0  0  0  0  0  0
    4.2524   -7.5626    0.0000 C   0  0  0  0  0  0  0  0  0  0  0  0
    3.6604   -6.9957    0.0000 N   0  0  0  0  0  0  0  0  0  0  0  0
    2.9267   -7.3750    0.0000 N   0  0  0  0  0  0  0  0  0  0  0  0
    7.1416   -5.5574    0.0000 C   0  0  0  0  0  0  0  0  0  0  0  0
    3.8855   -8.3090    0.0000 N   0  0  0  0  0  0  0  0  0  0  0  0
    4.3150   -2.2430    0.0000 C   0  0  0  0  0  0  0  0  0  0  0  0
    3.0643   -8.1880    0.0000 N   0  0  0  0  0  0  0  0  0  0  0  0
    7.8420   -5.9867    0.0000 C   0  0  0  0  0  0  0  0  0  0  0  0
    2.2180   -2.6432    0.0000 C   0  0  0  0  0  0  0  0  0  0  0  0
    7.8670   -4.3317    0.0000 C   0  0  0  0  0  0  0  0  0  0  0  0
    6.4579   -3.4812    0.0000 C   0  0  0  0  0  0  0  0  0  0  0  0
    5.0654   -7.4251    0.0000 C   0  0  0  0  0  0  0  0  0  0  0  0
    5.0279   -3.4812    0.0000 C   0  0  0  0  0  0  0  0  0  0  0  0
    5.3656   -6.6580    0.0000 C   0  0  0  0  0  0  0  0  0  0  0  0
    5.7408   -3.0685    0.0000 C   0  0  0  0  0  0  0  0  0  0  0  0
    1.5092   -2.2305    0.0000 C   0  0  0  0  0  0  0  0  0  0  0  0
    1.5092   -3.0560    0.0000 C   0  0  0  0  0  0  0  0  0  0  0  0
    3.2644   -4.1024    0.0000 C   0  0  0  0  0  0  0  0  0  0  0  0
    7.8295   -6.8122    0.0000 N   0  0  0  0  0  0  0  0  0  0  0  0
    4.8486   -6.0118    0.0000 C   0  0  0  0  0  0  0  0  0  0  0  0
    8.5674   -5.5824    0.0000 O   0  0  0  0  0  0  0  0  0  0  0  0
    7.8795   -3.5062    0.0000 C   0  0  0  0  0  0  0  0  0  0  0  0
    5.0279   -1.8303    0.0000 C   0  0  0  0  0  0  0  0  0  0  0  0
    8.5799   -4.7569    0.0000 O   0  0  0  0  0  0  0  0  0  0  0  0
    7.1791   -3.0810    0.0000 C   0  0  0  0  0  0  0  0  0  0  0  0
    5.7408   -2.2430    0.0000 C   0  0  0  0  0  0  0  0  0  0  0  0
    5.1488   -5.2447    0.0000 C   0  0  0  0  0  0  0  0  0  0  0  0
    4.0273   -6.1368    0.0000 C   0  0  0  0  0  0  0  0  0  0  0  0
    3.8147   -4.7194    0.0000 C   0  0  0  0  0  0  0  0  0  0  0  0
    3.5145   -5.4907    0.0000 C   0  0  0  0  0  0  0  0  0  0  0  0
    4.6360   -4.5943    0.0000 C   0  0  0  0  0  0  0  0  0  0  0  0
    5.5782   -8.0713    0.0000 C   0  0  0  0  0  0  0  0  0  0  0  0
    6.1828   -6.5330    0.0000 C   0  0  0  0  0  0  0  0  0  0  0  0
    8.5424   -7.2375    0.0000 C   0  0  0  0  0  0  0  0  0  0  0  0
    7.1166   -7.2124    0.0000 C   0  0  0  0  0  0  0  0  0  0  0  0
    6.6955   -7.1749    0.0000 C   0  0  0  0  0  0  0  0  0  0  0  0
    6.4037   -7.9379    0.0000 C   0  0  0  0  0  0  0  0  0  0  0  0
  2  1  1  0  0  0  0
  3  2  2  0  0  0  0
  4  5  1  0  0  0  0
  5 17  2  0  0  0  0
  6  1  1  0  0  0  0
  7 18  1  0  0  0  0
  8  7  1  0  0  0  0
  9  8  2  0  0  0  0
 10  4  1  0  0  0  0
 11  7  2  0  0  0  0
 12  6  2  0  0  0  0
 13 11  1  0  0  0  0
 14 10  1  0  0  0  0
 15  2  1  0  0  0  0
 16 28  1  0  0  0  0
 17 21  1  0  0  0  0
 18 20  2  0  0  0  0
 19  6  1  0  0  0  0
 20 26  1  0  0  0  0
 21 19  2  0  0  0  0
 22 15  1  0  0  0  0
 23 15  1  0  0  0  0
 24  1  1  0  0  0  0
 25 14  1  0  0  0  0
 26 33  2  0  0  0  0
 27 14  2  0  0  0  0
 28 31  1  0  0  0  0
 29 12  1  0  0  0  0
 30 16  2  0  0  0  0
 31 17  1  0  0  0  0
 32 21  1  0  0  0  0
 33 37  1  0  0  0  0
 34 36  2  0  0  0  0
 35 24  1  0  0  0  0
 36 35  1  0  0  0  0
 37 35  2  0  0  0  0
 38 18  1  0  0  0  0
 39 20  1  0  0  0  0
 40 25  1  0  0  0  0
 41 25  1  0  0  0  0
 42 39  2  0  0  0  0
 43 42  1  0  0  0  0
  3 12  1  0  0  0  0
 23 22  1  0  0  0  0
 26 34  1  0  0  0  0
 29 32  2  0  0  0  0
  4 16  1  0  0  0  0
 38 43  2  0  0  0  0
  9 13  1  0  0  0  0
M  END
>  <Mol Weight>
573.6476

>  <Formula>
C32H31N9O2

>  <chembl_id>
CHEMBL24319

$$$$

  Mrv0541 06201412482D          

 41 43  0  0  0  0            999 V2000
    1.3298   -5.8694    0.0000 C   0  0  0  0  0  0  0  0  0  0  0  0
    1.2048   -6.6823    0.0000 C   0  0  0  0  0  0  0  0  0  0  0  0
    2.1135   -5.6068    0.0000 C   0  0  0  0  0  0  0  0  0  0  0  0
    0.4669   -7.0574    0.0000 C   0  0  0  0  0  0  0  0  0  0  0  0
    0.7420   -5.2816    0.0000 C   0  0  0  0  0  0  0  0  0  0  0  0
   -0.9963   -7.8078    0.0000 C   0  0  0  0  0  0  0  0  0  0  0  0
   -1.4340   -5.1316    0.0000 C   0  0  0  0  0  0  0  0  0  0  0  0
   -0.6336   -4.9190    0.0000 C   0  0  0  0  0  0  0  0  0  0  0  0
   -0.9587   -6.9824    0.0000 C   0  0  0  0  0  0  0  0  0  0  0  0
   -0.0583   -5.4942    0.0000 C   0  0  0  0  0  0  0  0  0  0  0  0
    1.8634   -7.2575    0.0000 C   0  0  0  0  0  0  0  0  0  0  0  0
    2.2802   -4.8064    0.0000 C   0  0  0  0  0  0  0  0  0  0  0  0
   -0.3084   -8.2580    0.0000 C   0  0  0  0  0  0  0  0  0  0  0  0
   -0.2209   -6.6072    0.0000 C   0  0  0  0  0  0  0  0  0  0  0  0
    0.4294   -7.8828    0.0000 C   0  0  0  0  0  0  0  0  0  0  0  0
    1.6800   -4.2436    0.0000 C   0  0  0  0  0  0  0  0  0  0  0  0
   -1.7966   -8.0329    0.0000 O   0  0  0  0  0  0  0  0  0  0  0  0
   -1.7341   -6.6948    0.0000 O   0  0  0  0  0  0  0  0  0  0  0  0
    1.8759   -3.4433    0.0000 C   0  0  0  0  0  0  0  0  0  0  0  0
   -1.6466   -5.9319    0.0000 C   0  0  0  0  0  0  0  0  0  0  0  0
   -2.2468   -7.3451    0.0000 C   0  0  0  0  0  0  0  0  0  0  0  0
    2.7680   -7.0574    0.0000 O   0  5  0  0  0  0  0  0  0  0  0  0
    2.7263   -6.1570    0.0000 O   0  0  0  0  0  0  0  0  0  0  0  0
    2.6679   -3.2140    0.0000 C   0  0  0  0  0  0  0  0  0  0  0  0
   -0.2584   -6.2946    0.0000 C   0  0  0  0  0  0  0  0  0  0  0  0
    3.0681   -4.5771    0.0000 C   0  0  0  0  0  0  0  0  0  0  0  0
    1.7383   -8.0579    0.0000 O   0  0  0  0  0  0  0  0  0  0  0  0
   -1.0588   -6.5072    0.0000 C   0  0  0  0  0  0  0  0  0  0  0  0
    3.2557   -3.7809    0.0000 C   0  0  0  0  0  0  0  0  0  0  0  0
   -2.0134   -4.5521    0.0000 O   0  0  0  0  0  0  0  0  0  0  0  0
   -0.4252   -4.1186    0.0000 O   0  0  0  0  0  0  0  0  0  0  0  0
   -0.3502   -9.0834    0.0000 O   0  0  0  0  0  0  0  0  0  0  0  0
   -2.4469   -6.1445    0.0000 O   0  0  0  0  0  0  0  0  0  0  0  0
    2.8638   -2.4053    0.0000 O   0  0  0  0  0  0  0  0  0  0  0  0
    4.5688   -6.8073    0.0000 Na  0  3  0  0  0  0  0  0  0  0  0  0
    1.2756   -2.8805    0.0000 C   0  0  0  0  0  0  0  0  0  0  0  0
   -2.8138   -4.7647    0.0000 C   0  0  0  0  0  0  0  0  0  0  0  0
    0.3752   -3.9060    0.0000 C   0  0  0  0  0  0  0  0  0  0  0  0
   -1.0880   -9.4585    0.0000 C   0  0  0  0  0  0  0  0  0  0  0  0
   -3.0264   -5.5651    0.0000 C   0  0  0  0  0  0  0  0  0  0  0  0
    3.6517   -2.1760    0.0000 C   0  0  0  0  0  0  0  0  0  0  0  0
  2  1  2  0  0  0  0
  3  1  1  0  0  0  0
  4  2  1  0  0  0  0
  5  1  1  0  0  0  0
  6 13  1  0  0  0  0
  7  8  1  0  0  0  0
  8 10  2  0  0  0  0
  9 14  1  0  0  0  0
 10  5  1  0  0  0  0
 11  2  1  0  0  0  0
 12  3  1  0  0  0  0
 13 15  2  0  0  0  0
 14  4  2  0  0  0  0
 15  4  1  0  0  0  0
 16 12  1  0  0  0  0
 17  6  1  0  0  0  0
 18  9  1  0  0  0  0
 19 16  2  0  0  0  0
 20 28  1  0  0  0  0
 21 18  1  0  0  0  0
 22 11  1  0  0  0  0
 23  3  2  0  0  0  0
 24 29  2  0  0  0  0
 25 10  1  0  0  0  0
 26 12  2  0  0  0  0
 27 11  2  0  0  0  0
 28 25  2  0  0  0  0
 29 26  1  0  0  0  0
 30  7  1  0  0  0  0
 31  8  1  0  0  0  0
 32 13  1  0  0  0  0
 33 20  1  0  0  0  0
 34 24  1  0  0  0  0
 36 19  1  0  0  0  0
 37 30  1  0  0  0  0
 38 31  1  0  0  0  0
 39 32  1  0  0  0  0
 40 33  1  0  0  0  0
 41 34  1  0  0  0  0
  6  9  2  0  0  0  0
 20  7  2  0  0  0  0
 24 19  1  0  0  0  0
 17 21  1  0  0  0  0
M  CHG  2  22  -1  35   1
M  END
>  <Mol Weight>
572.535

>  <Formula>
C30H29NaO10

>  <chembl_id>
CHEMBL10847

$$$$

  Mrv0541 06201412482D          

 34 36  0  0  0  0            999 V2000
    4.5500   -3.5917    0.0000 S   0  0  0  0  0  0  0  0  0  0  0  0
    4.5500   -4.4167    0.0000 N   0  0  0  0  0  0  0  0  0  0  0  0
    7.4000   -1.1250    0.0000 C   0  0  0  0  0  0  0  0  0  0  0  0
    3.8292   -4.8292    0.0000 C   0  0  0  0  0  0  0  0  0  0  0  0
    3.1167   -4.4167    0.0000 C   0  0  0  0  0  0  0  0  0  0  0  0
    5.2625   -3.1792    0.0000 C   0  0  0  0  0  0  0  0  0  0  0  0
    7.4042   -1.9417    0.0000 N   0  0  0  0  0  0  0  0  0  0  0  0
    4.5500   -6.0667    0.0000 C   0  0  0  0  0  0  0  0  0  0  0  0
    5.2625   -6.4750    0.0000 C   0  0  0  0  0  0  0  0  0  0  0  0
    4.3292   -2.7875    0.0000 O   0  0  0  0  0  0  0  0  0  0  0  0
    3.7500   -3.8000    0.0000 O   0  0  0  0  0  0  0  0  0  0  0  0
    6.6792   -6.4792    0.0000 N   0  0  0  0  0  0  0  0  0  0  0  0
    8.1125   -0.7042    0.0000 C   0  0  0  0  0  0  0  0  0  0  0  0
    6.6792   -0.7167    0.0000 O   0  0  0  0  0  0  0  0  0  0  0  0
    3.1167   -3.5917    0.0000 O   0  0  0  0  0  0  0  0  0  0  0  0
    5.9792   -3.5917    0.0000 C   0  0  0  0  0  0  0  0  0  0  0  0
    5.2625   -2.3625    0.0000 C   0  0  0  0  0  0  0  0  0  0  0  0
    8.1000   -5.6625    0.0000 O   0  0  0  0  0  0  0  0  0  0  0  0
    8.1042    0.1125    0.0000 C   0  0  0  0  0  0  0  0  0  0  0  0
    8.8292   -1.1167    0.0000 C   0  0  0  0  0  0  0  0  0  0  0  0
    6.6917   -2.3542    0.0000 C   0  0  0  0  0  0  0  0  0  0  0  0
    3.8292   -5.6542    0.0000 C   0  0  0  0  0  0  0  0  0  0  0  0
    5.9750   -6.8875    0.0000 C   0  0  0  0  0  0  0  0  0  0  0  0
    2.4042   -4.8292    0.0000 O   0  0  0  0  0  0  0  0  0  0  0  0
    9.5375    0.1250    0.0000 C   0  0  0  0  0  0  0  0  0  0  0  0
    5.9750   -1.9417    0.0000 C   0  0  0  0  0  0  0  0  0  0  0  0
    6.6917   -3.1792    0.0000 C   0  0  0  0  0  0  0  0  0  0  0  0
    9.5417   -0.7000    0.0000 C   0  0  0  0  0  0  0  0  0  0  0  0
    8.8167    0.5333    0.0000 C   0  0  0  0  0  0  0  0  0  0  0  0
   10.2500    0.5458    0.0000 Br  0  0  0  0  0  0  0  0  0  0  0  0
    7.3875   -6.8875    0.0000 C   0  0  0  0  0  0  0  0  0  0  0  0
    6.6750   -5.6625    0.0000 C   0  0  0  0  0  0  0  0  0  0  0  0
    7.3875   -5.2542    0.0000 C   0  0  0  0  0  0  0  0  0  0  0  0
    8.0917   -6.4792    0.0000 C   0  0  0  0  0  0  0  0  0  0  0  0
  2  1  1  0  0  0  0
  3  7  1  0  0  0  0
  4  2  1  0  0  0  0
  5  4  1  0  0  0  0
  6  1  1  0  0  0  0
  7 21  1  0  0  0  0
  8 22  1  0  0  0  0
  9  8  3  0  0  0  0
 10  1  2  0  0  0  0
 11  1  2  0  0  0  0
 12 23  1  0  0  0  0
 13  3  1  0  0  0  0
 14  3  2  0  0  0  0
 15  5  2  0  0  0  0
 16  6  2  0  0  0  0
 17  6  1  0  0  0  0
 18 33  1  0  0  0  0
 19 13  1  0  0  0  0
 20 13  2  0  0  0  0
 21 26  1  0  0  0  0
 22  4  1  0  0  0  0
 23  9  1  0  0  0  0
 24  5  1  0  0  0  0
 25 28  2  0  0  0  0
 26 17  2  0  0  0  0
 27 16  1  0  0  0  0
 28 20  1  0  0  0  0
 29 19  2  0  0  0  0
 30 25  1  0  0  0  0
 31 12  1  0  0  0  0
 32 12  1  0  0  0  0
 33 32  1  0  0  0  0
 34 31  1  0  0  0  0
 27 21  2  0  0  0  0
 29 25  1  0  0  0  0
 34 18  1  0  0  0  0
M  END
>  <Mol Weight>
550.422

>  <Formula>
C23H24BrN3O6S

>  <chembl_id>
CHEMBL10296

$$$$

  Mrv0541 06201412482D          

 39 41  0  0  0  0            999 V2000
    4.3234   -1.6302    0.0000 C   0  0  0  0  0  0  0  0  0  0  0  0
    1.2488   -1.6302    0.0000 C   0  0  0  0  0  0  0  0  0  0  0  0
    0.5366   -2.0506    0.0000 C   0  0  0  0  0  0  0  0  0  0  0  0
    2.6655   -1.6302    0.0000 C   0  0  0  0  0  0  0  0  0  0  0  0
    1.9611   -2.0466    0.0000 N   0  0  0  0  0  0  0  0  0  0  0  0
    3.9031   -2.3502    0.0000 C   0  0  0  0  0  0  0  0  0  0  0  0
    3.9148   -0.9180    0.0000 C   0  0  0  0  0  0  0  0  0  0  0  0
    5.0356   -1.2177    0.0000 C   0  0  0  0  0  0  0  0  0  0  0  0
    3.0819   -2.3424    0.0000 C   0  0  0  0  0  0  0  0  0  0  0  0
    3.0819   -0.9180    0.0000 C   0  0  0  0  0  0  0  0  0  0  0  0
   -0.1756   -1.6380    0.0000 O   0  0  0  0  0  0  0  0  0  0  0  0
    0.5289   -2.8756    0.0000 O   0  0  0  0  0  0  0  0  0  0  0  0
    1.2411   -0.8090    0.0000 O   0  0  0  0  0  0  0  0  0  0  0  0
    5.0317   -0.3926    0.0000 O   0  0  0  0  0  0  0  0  0  0  0  0
    5.7479   -1.6302    0.0000 N   0  0  0  0  0  0  0  0  0  0  0  0
   -0.8878   -2.0506    0.0000 C   0  0  0  0  0  0  0  0  0  0  0  0
   -0.0549   -3.4516    0.0000 C   0  0  0  0  0  0  0  0  0  0  0  0
    2.4981   -0.3343    0.0000 Cl  0  0  0  0  0  0  0  0  0  0  0  0
    4.3118   -3.0624    0.0000 O   0  0  0  0  0  0  0  0  0  0  0  0
   -2.5418   -2.0389    0.0000 C   0  0  0  0  0  0  0  0  0  0  0  0
   -1.2264   -4.6075    0.0000 C   0  0  0  0  0  0  0  0  0  0  0  0
    7.9662   -1.0075    0.0000 N   0  0  0  0  0  0  0  0  0  0  0  0
   -3.3707   -2.0350    0.0000 Cl  0  0  0  0  0  0  0  0  0  0  0  0
   -1.8101   -5.1913    0.0000 Cl  0  0  0  0  0  0  0  0  0  0  0  0
   -0.8527   -3.2298    0.0000 C   0  0  0  0  0  0  0  0  0  0  0  0
   -1.2925   -1.3344    0.0000 C   0  0  0  0  0  0  0  0  0  0  0  0
    0.1553   -4.2456    0.0000 C   0  0  0  0  0  0  0  0  0  0  0  0
   -1.3081   -2.7628    0.0000 C   0  0  0  0  0  0  0  0  0  0  0  0
   -2.1331   -2.7511    0.0000 C   0  0  0  0  0  0  0  0  0  0  0  0
   -0.4285   -4.8254    0.0000 C   0  0  0  0  0  0  0  0  0  0  0  0
   -2.1254   -1.3267    0.0000 C   0  0  0  0  0  0  0  0  0  0  0  0
   -1.4365   -3.8136    0.0000 C   0  0  0  0  0  0  0  0  0  0  0  0
    6.4601   -1.2099    0.0000 C   0  0  0  0  0  0  0  0  0  0  0  0
    7.2540   -1.4201    0.0000 C   0  0  0  0  0  0  0  0  0  0  0  0
    8.5461   -1.5835    0.0000 C   0  0  0  0  0  0  0  0  0  0  0  0
    8.3748   -0.2876    0.0000 C   0  0  0  0  0  0  0  0  0  0  0  0
    5.1368   -3.0663    0.0000 C   0  0  0  0  0  0  0  0  0  0  0  0
    9.1999   -0.2876    0.0000 C   0  0  0  0  0  0  0  0  0  0  0  0
    9.3673   -1.5835    0.0000 C   0  0  0  0  0  0  0  0  0  0  0  0
  2  5  1  0  0  0  0
  3  2  1  0  0  0  0
  4 10  2  0  0  0  0
  5  4  1  0  0  0  0
  6  1  1  0  0  0  0
  7  1  2  0  0  0  0
  8  1  1  0  0  0  0
  9  6  2  0  0  0  0
 10  7  1  0  0  0  0
 11  3  1  0  0  0  0
 12  3  1  0  0  0  0
 13  2  2  0  0  0  0
 14  8  2  0  0  0  0
 15  8  1  0  0  0  0
 16 11  1  0  0  0  0
 17 12  1  0  0  0  0
 18 10  1  0  0  0  0
 19  6  1  0  0  0  0
 20 29  1  0  0  0  0
 21 30  1  0  0  0  0
 22 34  1  0  0  0  0
 23 20  1  0  0  0  0
 24 21  1  0  0  0  0
 25 17  2  0  0  0  0
 26 16  2  0  0  0  0
 27 17  1  0  0  0  0
 28 16  1  0  0  0  0
 29 28  2  0  0  0  0
 30 27  2  0  0  0  0
 31 26  1  0  0  0  0
 32 25  1  0  0  0  0
 33 15  1  0  0  0  0
 34 33  1  0  0  0  0
 35 22  1  0  0  0  0
 36 22  1  0  0  0  0
 37 19  1  0  0  0  0
 38 36  1  0  0  0  0
 39 35  1  0  0  0  0
  9  4  1  0  0  0  0
 21 32  2  0  0  0  0
 20 31  2  0  0  0  0
M  END
>  <Mol Weight>
594.914

>  <Formula>
C28H30Cl3N3O5

>  <chembl_id>
CHEMBL10325

$$$$

  Mrv0541 06201412482D          

 39 43  0  0  1  0            999 V2000
    5.0308   -5.7051    0.0000 S   0  0  0  0  0  0  0  0  0  0  0  0
    2.8191   -4.5281    0.0000 C   0  0  0  0  0  0  0  0  0  0  0  0
    3.2170   -4.8255    0.0000 C   0  0  1  0  0  0  0  0  0  0  0  0
    3.6233   -4.1846    0.0000 C   0  0  2  0  0  0  0  0  0  0  0  0
    2.5426   -5.2402    0.0000 C   0  0  0  0  0  0  0  0  0  0  0  0
    2.6641   -6.0821    0.0000 C   0  0  0  0  0  0  0  0  0  0  0  0
    4.4904   -5.1648    0.0000 N   0  0  0  0  0  0  0  0  0  0  0  0
    1.7719   -4.7249    0.0000 O   0  0  0  0  0  0  0  0  0  0  0  0
    2.1028   -4.1218    0.0000 C   0  0  0  0  0  0  0  0  0  0  0  0
    3.7573   -5.3658    0.0000 C   0  0  0  0  0  0  0  0  0  0  0  0
    5.5711   -6.2455    0.0000 C   0  0  0  0  0  0  0  0  0  0  0  0
    2.8903   -3.7071    0.0000 C   0  0  0  0  0  0  0  0  0  0  0  0
    5.5795   -5.1773    0.0000 O   0  0  0  0  0  0  0  0  0  0  0  0
    4.4862   -6.2455    0.0000 O   0  0  0  0  0  0  0  0  0  0  0  0
    5.2192   -1.2106    0.0000 C   0  0  0  0  0  0  0  0  0  0  0  0
    3.0285   -2.0609    0.0000 C   0  0  0  0  0  0  0  0  0  0  0  0
    4.5532   -0.7079    0.0000 O   0  0  0  0  0  0  0  0  0  0  0  0
    3.6359   -3.3552    0.0000 C   0  0  0  0  0  0  0  0  0  0  0  0
    2.2033   -3.2421    0.0000 C   0  0  0  0  0  0  0  0  0  0  0  0
    2.2662   -2.4127    0.0000 C   0  0  0  0  0  0  0  0  0  0  0  0
    3.7071   -2.5384    0.0000 C   0  0  0  0  0  0  0  0  0  0  0  0
    5.3700   -6.9869    0.0000 C   0  0  0  0  0  0  0  0  0  0  0  0
    6.3000   -6.0444    0.0000 C   0  0  0  0  0  0  0  0  0  0  0  0
    5.0308   -3.9081    0.0000 C   0  0  0  0  0  0  0  0  0  0  0  0
    3.0955   -1.2315    0.0000 C   0  0  0  0  0  0  0  0  0  0  0  0
    5.6591   -3.3678    0.0000 C   0  0  0  0  0  0  0  0  0  0  0  0
    4.2474   -3.6442    0.0000 C   0  0  0  0  0  0  0  0  0  0  0  0
    6.6476   -7.3262    0.0000 C   0  0  0  0  0  0  0  0  0  0  0  0
    5.9858   -0.8964    0.0000 O   0  0  0  0  0  0  0  0  0  0  0  0
    5.9104   -7.5272    0.0000 C   0  0  0  0  0  0  0  0  0  0  0  0
    6.8403   -6.5848    0.0000 C   0  0  0  0  0  0  0  0  0  0  0  0
    7.1879   -7.8665    0.0000 Cl  0  0  0  0  0  0  0  0  0  0  0  0
    5.1062   -2.0357    0.0000 C   0  0  0  0  0  0  0  0  0  0  0  0
    5.7596   -2.5384    0.0000 C   0  0  0  0  0  0  0  0  0  0  0  0
    2.4170   -0.7665    0.0000 C   0  0  0  0  0  0  0  0  0  0  0  0
    3.8495   -0.8796    0.0000 C   0  0  0  0  0  0  0  0  0  0  0  0
    3.9207   -0.0628    0.0000 C   0  0  0  0  0  0  0  0  0  0  0  0
    2.4798    0.0628    0.0000 C   0  0  0  0  0  0  0  0  0  0  0  0
    3.2338    0.4147    0.0000 C   0  0  0  0  0  0  0  0  0  0  0  0
  2  4  1  0  0  0  0
  3 10  1  6  0  0  0
  4  3  1  0  0  0  0
  5  3  1  0  0  0  0
  6  5  1  0  0  0  0
  7  1  1  0  0  0  0
  8  5  1  0  0  0  0
  9  8  1  0  0  0  0
 10  7  1  0  0  0  0
 11  1  1  0  0  0  0
 12  2  1  0  0  0  0
 13  1  2  0  0  0  0
 14  1  2  0  0  0  0
 15 33  1  0  0  0  0
 16 20  1  0  0  0  0
 17 15  2  0  0  0  0
 18 12  2  0  0  0  0
 19 12  1  0  0  0  0
 20 19  2  0  0  0  0
 21 18  1  0  0  0  0
 22 11  2  0  0  0  0
 23 11  1  0  0  0  0
 24 27  1  0  0  0  0
 25 16  1  0  0  0  0
 26 24  2  0  0  0  0
  4 27  1  1  0  0  0
 28 31  1  0  0  0  0
 29 15  1  0  0  0  0
 30 22  1  0  0  0  0
 31 23  2  0  0  0  0
 32 28  1  0  0  0  0
 33 34  1  0  0  0  0
 34 26  1  0  0  0  0
 35 25  1  0  0  0  0
 36 25  2  0  0  0  0
 37 36  1  0  0  0  0
 38 35  2  0  0  0  0
 39 37  2  0  0  0  0
 28 30  2  0  0  0  0
  6  2  1  0  0  0  0
  2  9  1  0  0  0  0
 16 21  2  0  0  0  0
 39 38  1  0  0  0  0
M  END
>  <Mol Weight>
566.107

>  <Formula>
C31H32ClNO5S

>  <chembl_id>
CHEMBL10365

$$$$

  Mrv0541 06201412482D          

 42 46  0  0  0  0            999 V2000
    3.8956   -3.7996    0.0000 C   0  0  0  0  0  0  0  0  0  0  0  0
    3.1733   -3.3737    0.0000 C   0  0  0  0  0  0  0  0  0  0  0  0
    3.8956   -4.6346    0.0000 C   0  0  0  0  0  0  0  0  0  0  0  0
    2.4468   -3.7996    0.0000 C   0  0  0  0  0  0  0  0  0  0  0  0
    4.6137   -3.3862    0.0000 C   0  0  0  0  0  0  0  0  0  0  0  0
    3.1691   -5.0479    0.0000 N   0  0  0  0  0  0  0  0  0  0  0  0
    2.4468   -4.6346    0.0000 C   0  0  0  0  0  0  0  0  0  0  0  0
    1.7328   -3.3862    0.0000 C   0  0  0  0  0  0  0  0  0  0  0  0
    5.3277   -3.7996    0.0000 N   0  0  0  0  0  0  0  0  0  0  0  0
    1.0188   -3.7996    0.0000 C   0  0  0  0  0  0  0  0  0  0  0  0
    0.3048   -3.3862    0.0000 C   0  0  0  0  0  0  0  0  0  0  0  0
    0.3048   -2.5595    0.0000 C   0  0  0  0  0  0  0  0  0  0  0  0
    4.6095   -5.0521    0.0000 O   0  0  0  0  0  0  0  0  0  0  0  0
    4.6137   -2.5595    0.0000 O   0  0  0  0  0  0  0  0  0  0  0  0
   13.8954   -2.1712    0.0000 C   0  0  0  0  0  0  0  0  0  0  0  0
   -0.4091   -2.1461    0.0000 C   0  0  0  0  0  0  0  0  0  0  0  0
    1.7328   -5.0396    0.0000 C   0  0  0  0  0  0  0  0  0  0  0  0
    3.1733   -2.5470    0.0000 O   0  0  0  0  0  0  0  0  0  0  0  0
    1.0188   -4.6263    0.0000 C   0  0  0  0  0  0  0  0  0  0  0  0
   -0.4091   -3.7996    0.0000 C   0  0  0  0  0  0  0  0  0  0  0  0
   13.8954   -1.3445    0.0000 O   0  0  0  0  0  0  0  0  0  0  0  0
   -1.1231   -2.5595    0.0000 C   0  0  0  0  0  0  0  0  0  0  0  0
   -1.1231   -3.3862    0.0000 C   0  0  0  0  0  0  0  0  0  0  0  0
    6.0417   -3.3862    0.0000 C   0  0  0  0  0  0  0  0  0  0  0  0
    7.4696   -2.5720    0.0000 C   0  0  0  0  0  0  0  0  0  0  0  0
   14.6094   -2.5803    0.0000 O   0  0  0  0  0  0  0  0  0  0  0  0
    6.7557   -3.8079    0.0000 C   0  0  0  0  0  0  0  0  0  0  0  0
    6.0417   -2.5678    0.0000 C   0  0  0  0  0  0  0  0  0  0  0  0
    6.7557   -2.1545    0.0000 C   0  0  0  0  0  0  0  0  0  0  0  0
    7.4696   -3.3987    0.0000 C   0  0  0  0  0  0  0  0  0  0  0  0
    8.1919   -2.1587    0.0000 O   0  0  0  0  0  0  0  0  0  0  0  0
   13.1898   -2.5845    0.0000 C   0  0  0  0  0  0  0  0  0  0  0  0
   -0.4091   -1.3194    0.0000 C   0  0  0  0  0  0  0  0  0  0  0  0
   -1.8496   -2.1461    0.0000 C   0  0  0  0  0  0  0  0  0  0  0  0
    8.9059   -2.5720    0.0000 C   0  0  0  0  0  0  0  0  0  0  0  0
   12.4758   -2.1712    0.0000 C   0  0  0  0  0  0  0  0  0  0  0  0
    9.6199   -2.1587    0.0000 C   0  0  0  0  0  0  0  0  0  0  0  0
   11.7618   -2.5803    0.0000 C   0  0  0  0  0  0  0  0  0  0  0  0
   10.3339   -2.5720    0.0000 C   0  0  0  0  0  0  0  0  0  0  0  0
   11.0395   -2.1670    0.0000 C   0  0  0  0  0  0  0  0  0  0  0  0
   -1.1231   -0.9061    0.0000 C   0  0  0  0  0  0  0  0  0  0  0  0
   -1.8496   -1.3194    0.0000 C   0  0  0  0  0  0  0  0  0  0  0  0
  2  1  2  0  0  0  0
  3  1  1  0  0  0  0
  4  2  1  0  0  0  0
  5  1  1  0  0  0  0
  6  3  2  0  0  0  0
  7  6  1  0  0  0  0
  8  4  2  0  0  0  0
  9  5  1  0  0  0  0
 10  8  1  0  0  0  0
 11 10  1  0  0  0  0
 12 11  2  0  0  0  0
 13  3  1  0  0  0  0
 14  5  2  0  0  0  0
 15 32  1  0  0  0  0
 16 12  1  0  0  0  0
 17  7  2  0  0  0  0
 18  2  1  0  0  0  0
 19 17  1  0  0  0  0
 20 11  1  0  0  0  0
 21 15  2  0  0  0  0
 22 23  1  0  0  0  0
 23 20  2  0  0  0  0
 24  9  1  0  0  0  0
 25 29  1  0  0  0  0
 26 15  1  0  0  0  0
 27 24  2  0  0  0  0
 28 24  1  0  0  0  0
 29 28  2  0  0  0  0
 30 27  1  0  0  0  0
 31 25  1  0  0  0  0
 32 36  1  0  0  0  0
 33 16  2  0  0  0  0
 34 22  2  0  0  0  0
 35 31  1  0  0  0  0
 36 38  1  0  0  0  0
 37 35  1  0  0  0  0
 38 40  1  0  0  0  0
 39 37  1  0  0  0  0
 40 39  1  0  0  0  0
 41 33  1  0  0  0  0
 42 34  1  0  0  0  0
  7  4  1  0  0  0  0
 25 30  2  0  0  0  0
 19 10  2  0  0  0  0
 22 16  1  0  0  0  0
 41 42  2  0  0  0  0
M  END
>  <Mol Weight>
564.6277

>  <Formula>
C34H32N2O6

>  <chembl_id>
CHEMBL10263

$$$$

  Mrv0541 06201412482D          

 41 45  0  0  0  0            999 V2000
    2.8934   -0.5929    0.0000 C   0  0  0  0  0  0  0  0  0  0  0  0
    2.1711   -0.1754    0.0000 C   0  0  0  0  0  0  0  0  0  0  0  0
    2.8934   -1.4321    0.0000 C   0  0  0  0  0  0  0  0  0  0  0  0
    1.4530   -0.5929    0.0000 C   0  0  0  0  0  0  0  0  0  0  0  0
    3.6116   -0.1879    0.0000 C   0  0  0  0  0  0  0  0  0  0  0  0
    2.1669   -1.8455    0.0000 N   0  0  0  0  0  0  0  0  0  0  0  0
   -0.6972   -0.1879    0.0000 C   0  0  0  0  0  0  0  0  0  0  0  0
    1.4446   -1.4321    0.0000 C   0  0  0  0  0  0  0  0  0  0  0  0
   -1.4989   -0.3800    0.0000 C   0  0  0  0  0  0  0  0  0  0  0  0
    0.7307   -0.1796    0.0000 C   0  0  0  0  0  0  0  0  0  0  0  0
    0.0251   -0.6012    0.0000 C   0  0  0  0  0  0  0  0  0  0  0  0
   -1.9289    0.3340    0.0000 S   0  0  0  0  0  0  0  0  0  0  0  0
   -0.6221    0.6388    0.0000 C   0  0  0  0  0  0  0  0  0  0  0  0
    4.3255   -0.6012    0.0000 N   0  0  0  0  0  0  0  0  0  0  0  0
   -1.3861    0.9603    0.0000 C   0  0  0  0  0  0  0  0  0  0  0  0
    3.6073   -1.8455    0.0000 O   0  0  0  0  0  0  0  0  0  0  0  0
    3.6116    0.6388    0.0000 O   0  0  0  0  0  0  0  0  0  0  0  0
   12.8929    1.0354    0.0000 C   0  0  0  0  0  0  0  0  0  0  0  0
    0.7307   -1.8412    0.0000 C   0  0  0  0  0  0  0  0  0  0  0  0
    0.0167   -1.4279    0.0000 C   0  0  0  0  0  0  0  0  0  0  0  0
    2.1711    0.6513    0.0000 O   0  0  0  0  0  0  0  0  0  0  0  0
   12.8929    1.8621    0.0000 O   0  0  0  0  0  0  0  0  0  0  0  0
    5.0395   -0.1879    0.0000 C   0  0  0  0  0  0  0  0  0  0  0  0
    6.4674    0.6346    0.0000 C   0  0  0  0  0  0  0  0  0  0  0  0
   13.6069    0.6221    0.0000 O   0  0  0  0  0  0  0  0  0  0  0  0
    5.7534   -0.6054    0.0000 C   0  0  0  0  0  0  0  0  0  0  0  0
    5.0395    0.6346    0.0000 C   0  0  0  0  0  0  0  0  0  0  0  0
    5.7534    1.0479    0.0000 C   0  0  0  0  0  0  0  0  0  0  0  0
    6.4674   -0.1921    0.0000 C   0  0  0  0  0  0  0  0  0  0  0  0
    0.0376    1.1398    0.0000 C   0  0  0  0  0  0  0  0  0  0  0  0
    7.1896    1.0479    0.0000 O   0  0  0  0  0  0  0  0  0  0  0  0
   12.1873    0.6221    0.0000 C   0  0  0  0  0  0  0  0  0  0  0  0
   -1.4905    1.7786    0.0000 C   0  0  0  0  0  0  0  0  0  0  0  0
    7.9036    0.6346    0.0000 C   0  0  0  0  0  0  0  0  0  0  0  0
   11.4734    1.0354    0.0000 C   0  0  0  0  0  0  0  0  0  0  0  0
    8.6175    1.0396    0.0000 C   0  0  0  0  0  0  0  0  0  0  0  0
    9.3315    0.6263    0.0000 C   0  0  0  0  0  0  0  0  0  0  0  0
   10.0371    1.0354    0.0000 C   0  0  0  0  0  0  0  0  0  0  0  0
   10.7594    0.6221    0.0000 C   0  0  0  0  0  0  0  0  0  0  0  0
   -0.0709    1.9623    0.0000 C   0  0  0  0  0  0  0  0  0  0  0  0
   -0.8350    2.2754    0.0000 C   0  0  0  0  0  0  0  0  0  0  0  0
  2  1  2  0  0  0  0
  3  1  1  0  0  0  0
  4  2  1  0  0  0  0
  5  1  1  0  0  0  0
  6  3  2  0  0  0  0
  7 11  1  0  0  0  0
  8  6  1  0  0  0  0
  9  7  2  0  0  0  0
 10  4  2  0  0  0  0
 11 10  1  0  0  0  0
 12  9  1  0  0  0  0
 13  7  1  0  0  0  0
 14  5  1  0  0  0  0
 15 13  2  0  0  0  0
 16  3  1  0  0  0  0
 17  5  2  0  0  0  0
 18 32  1  0  0  0  0
 19  8  2  0  0  0  0
 20 19  1  0  0  0  0
 21  2  1  0  0  0  0
 22 18  2  0  0  0  0
 23 14  1  0  0  0  0
 24 28  1  0  0  0  0
 25 18  1  0  0  0  0
 26 23  2  0  0  0  0
 27 23  1  0  0  0  0
 28 27  2  0  0  0  0
 29 26  1  0  0  0  0
 30 13  1  0  0  0  0
 31 24  1  0  0  0  0
 32 35  1  0  0  0  0
 33 15  1  0  0  0  0
 34 31  1  0  0  0  0
 35 39  1  0  0  0  0
 36 34  1  0  0  0  0
 37 36  1  0  0  0  0
 38 37  1  0  0  0  0
 39 38  1  0  0  0  0
 40 30  2  0  0  0  0
 41 40  1  0  0  0  0
  8  4  1  0  0  0  0
 24 29  2  0  0  0  0
 20 11  2  0  0  0  0
 12 15  1  0  0  0  0
 33 41  2  0  0  0  0
M  END
>  <Mol Weight>
570.655

>  <Formula>
C32H30N2O6S

>  <chembl_id>
CHEMBL10240

$$$$

  Mrv0541 06201412482D          

 43 49  0  0  0  0            999 V2000
    2.8185   -7.4129    0.0000 N   0  0  0  0  0  0  0  0  0  0  0  0
    3.9757   -8.2378    0.0000 C   0  0  0  0  0  0  0  0  0  0  0  0
    2.3373   -8.0831    0.0000 C   0  0  0  0  0  0  0  0  0  0  0  0
    3.5059   -8.9080    0.0000 C   0  0  0  0  0  0  0  0  0  0  0  0
    3.6320   -7.4930    0.0000 C   0  0  0  0  0  0  0  0  0  0  0  0
    1.5467   -7.8425    0.0000 C   0  0  0  0  0  0  0  0  0  0  0  0
    1.5353   -7.0176    0.0000 C   0  0  0  0  0  0  0  0  0  0  0  0
    2.6810   -8.8393    0.0000 C   0  0  0  0  0  0  0  0  0  0  0  0
    0.8249   -8.2664    0.0000 N   0  0  0  0  0  0  0  0  0  0  0  0
    3.8496   -9.6585    0.0000 C   0  0  0  0  0  0  0  0  0  0  0  0
    2.3201   -6.7540    0.0000 C   0  0  0  0  0  0  0  0  0  0  0  0
   -2.0393   -5.7974    0.0000 C   0  0  0  0  0  0  0  0  0  0  0  0
    0.8135   -6.6051    0.0000 C   0  0  0  0  0  0  0  0  0  0  0  0
   -1.3175   -5.3849    0.0000 N   0  0  0  0  0  0  0  0  0  0  0  0
    4.6631   -9.7330    0.0000 C   0  0  0  0  0  0  0  0  0  0  0  0
    0.1089   -7.0290    0.0000 C   0  0  0  0  0  0  0  0  0  0  0  0
    0.1089   -7.8539    0.0000 C   0  0  0  0  0  0  0  0  0  0  0  0
    4.8006   -8.3065    0.0000 C   0  0  0  0  0  0  0  0  0  0  0  0
    5.1443   -9.0569    0.0000 O   0  0  0  0  0  0  0  0  0  0  0  0
    0.8307   -4.1476    0.0000 N   0  0  0  0  0  0  0  0  0  0  0  0
   -2.0393   -6.6223    0.0000 O   0  0  0  0  0  0  0  0  0  0  0  0
    0.1089   -4.5600    0.0000 C   0  0  0  0  0  0  0  0  0  0  0  0
    4.1074   -6.8114    0.0000 O   0  0  0  0  0  0  0  0  0  0  0  0
   -0.6129   -6.6166    0.0000 C   0  0  0  0  0  0  0  0  0  0  0  0
   -0.6015   -4.1476    0.0000 C   0  0  0  0  0  0  0  0  0  0  0  0
    0.1089   -5.3849    0.0000 C   0  0  0  0  0  0  0  0  0  0  0  0
   -1.3175   -4.5600    0.0000 C   0  0  0  0  0  0  0  0  0  0  0  0
   -0.6015   -5.7974    0.0000 C   0  0  0  0  0  0  0  0  0  0  0  0
   -2.7440   -5.3849    0.0000 O   0  0  0  0  0  0  0  0  0  0  0  0
   -1.3175   -7.0348    0.0000 C   0  0  0  0  0  0  0  0  0  0  0  0
    5.0183  -10.4834    0.0000 O   0  0  0  0  0  0  0  0  0  0  0  0
   -0.6129   -8.2722    0.0000 C   0  0  0  0  0  0  0  0  0  0  0  0
    3.8382  -10.4834    0.0000 O   0  0  0  0  0  0  0  0  0  0  0  0
   -1.3175   -7.8597    0.0000 C   0  0  0  0  0  0  0  0  0  0  0  0
    3.1278  -10.0595    0.0000 C   0  0  0  0  0  0  0  0  0  0  0  0
    0.8135   -5.7802    0.0000 C   0  0  0  0  0  0  0  0  0  0  0  0
    1.5353   -4.5772    0.0000 C   0  0  0  0  0  0  0  0  0  0  0  0
    0.8307   -3.3341    0.0000 C   0  0  0  0  0  0  0  0  0  0  0  0
    2.4232   -9.6413    0.0000 C   0  0  0  0  0  0  0  0  0  0  0  0
    1.5181   -5.3678    0.0000 C   0  0  0  0  0  0  0  0  0  0  0  0
    1.5525   -2.9274    0.0000 C   0  0  0  0  0  0  0  0  0  0  0  0
    2.2571   -4.1648    0.0000 C   0  0  0  0  0  0  0  0  0  0  0  0
    2.2571   -3.3398    0.0000 C   0  0  0  0  0  0  0  0  0  0  0  0
  2  5  1  0  0  0  0
  3  1  1  0  0  0  0
  4  2  2  0  0  0  0
  5  1  1  0  0  0  0
  6  3  1  0  0  0  0
  7 11  1  0  0  0  0
  8  3  2  0  0  0  0
  9  6  2  0  0  0  0
 10  4  1  0  0  0  0
 11  1  1  0  0  0  0
 12 21  1  0  0  0  0
 13  7  2  0  0  0  0
 14 12  1  0  0  0  0
 15 19  1  0  0  0  0
 16 13  1  0  0  0  0
 17  9  1  0  0  0  0
 18  2  1  0  0  0  0
 19 18  1  0  0  0  0
 20 22  1  0  0  0  0
 21 30  1  0  0  0  0
 22 26  1  0  0  0  0
 23  5  2  0  0  0  0
 24 16  2  0  0  0  0
 25 27  1  0  0  0  0
 26 28  1  0  0  0  0
 27 14  1  0  0  0  0
 28 14  1  0  0  0  0
 29 12  2  0  0  0  0
 30 24  1  0  0  0  0
 31 15  2  0  0  0  0
 32 17  2  0  0  0  0
 33 10  1  0  0  0  0
 34 32  1  0  0  0  0
 35 10  1  0  0  0  0
 36 13  1  0  0  0  0
 37 20  1  0  0  0  0
 38 20  1  0  0  0  0
 39 35  1  0  0  0  0
 40 36  1  0  0  0  0
 41 38  1  0  0  0  0
 42 37  1  0  0  0  0
 43 41  1  0  0  0  0
  7  6  1  0  0  0  0
  8  4  1  0  0  0  0
 16 17  1  0  0  0  0
 10 15  1  0  0  0  0
 30 34  2  0  0  0  0
 25 22  1  0  0  0  0
 42 43  1  0  0  0  0
M  END
>  <Mol Weight>
586.678

>  <Formula>
C33H38N4O6

>  <chembl_id>
CHEMBL10456

$$$$

  Mrv0541 06201412482D          

 39 41  0  0  0  0            999 V2000
    3.1125   -6.1917    0.0000 S   0  0  0  0  0  0  0  0  0  0  0  0
    7.3750   -7.8500    0.0000 C   0  0  0  0  0  0  0  0  0  0  0  0
    3.1125   -7.0167    0.0000 N   0  0  0  0  0  0  0  0  0  0  0  0
    6.6625   -8.2542    0.0000 N   0  0  0  0  0  0  0  0  0  0  0  0
    2.3917   -7.4292    0.0000 C   0  0  0  0  0  0  0  0  0  0  0  0
    1.6792   -7.0167    0.0000 C   0  0  0  0  0  0  0  0  0  0  0  0
    3.8250   -5.7792    0.0000 C   0  0  0  0  0  0  0  0  0  0  0  0
    8.0917   -8.2625    0.0000 O   0  0  0  0  0  0  0  0  0  0  0  0
    3.1125   -8.6667    0.0000 C   0  0  0  0  0  0  0  0  0  0  0  0
    3.8250   -9.0750    0.0000 C   0  0  0  0  0  0  0  0  0  0  0  0
    2.3125   -6.4000    0.0000 O   0  0  0  0  0  0  0  0  0  0  0  0
    2.8917   -5.3875    0.0000 O   0  0  0  0  0  0  0  0  0  0  0  0
    5.2417   -9.0750    0.0000 N   0  0  0  0  0  0  0  0  0  0  0  0
    7.3792   -7.0250    0.0000 O   0  0  0  0  0  0  0  0  0  0  0  0
    5.2542   -4.9542    0.0000 C   0  0  0  0  0  0  0  0  0  0  0  0
    5.9667   -4.5417    0.0000 C   0  0  0  0  0  0  0  0  0  0  0  0
    6.6542   -9.0792    0.0000 C   0  0  0  0  0  0  0  0  0  0  0  0
    5.9500   -7.8500    0.0000 C   0  0  0  0  0  0  0  0  0  0  0  0
    1.6792   -6.1917    0.0000 O   0  0  0  0  0  0  0  0  0  0  0  0
    8.8042   -7.8500    0.0000 C   0  0  0  0  0  0  0  0  0  0  0  0
    4.5417   -6.1917    0.0000 C   0  0  0  0  0  0  0  0  0  0  0  0
    3.8250   -4.9542    0.0000 C   0  0  0  0  0  0  0  0  0  0  0  0
    4.5375   -4.5417    0.0000 C   0  0  0  0  0  0  0  0  0  0  0  0
    5.2542   -5.7792    0.0000 C   0  0  0  0  0  0  0  0  0  0  0  0
    6.6792   -4.9542    0.0000 C   0  0  0  0  0  0  0  0  0  0  0  0
    5.9625   -3.7167    0.0000 C   0  0  0  0  0  0  0  0  0  0  0  0
    5.2375   -8.2542    0.0000 C   0  0  0  0  0  0  0  0  0  0  0  0
    5.9500   -9.4792    0.0000 C   0  0  0  0  0  0  0  0  0  0  0  0
    2.3917   -8.2542    0.0000 C   0  0  0  0  0  0  0  0  0  0  0  0
    4.5375   -9.4875    0.0000 C   0  0  0  0  0  0  0  0  0  0  0  0
    0.9667   -7.4292    0.0000 O   0  0  0  0  0  0  0  0  0  0  0  0
    7.3917   -3.7167    0.0000 C   0  0  0  0  0  0  0  0  0  0  0  0
    6.6750   -3.3042    0.0000 C   0  0  0  0  0  0  0  0  0  0  0  0
    7.3917   -4.5417    0.0000 C   0  0  0  0  0  0  0  0  0  0  0  0
    8.1042   -3.3042    0.0000 O   0  0  0  0  0  0  0  0  0  0  0  0
    9.5167   -8.2667    0.0000 C   0  0  0  0  0  0  0  0  0  0  0  0
    8.8042   -7.0250    0.0000 C   0  0  0  0  0  0  0  0  0  0  0  0
    9.0167   -8.6500    0.0000 C   0  0  0  0  0  0  0  0  0  0  0  0
    8.8250   -3.7125    0.0000 C   0  0  0  0  0  0  0  0  0  0  0  0
  2  4  1  0  0  0  0
  3  1  1  0  0  0  0
  4 17  1  0  0  0  0
  5  3  1  0  0  0  0
  6  5  1  0  0  0  0
  7  1  1  0  0  0  0
  8  2  1  0  0  0  0
  9 29  1  0  0  0  0
 10  9  3  0  0  0  0
 11  1  2  0  0  0  0
 12  1  2  0  0  0  0
 13 30  1  0  0  0  0
 14  2  2  0  0  0  0
 15 23  1  0  0  0  0
 16 15  1  0  0  0  0
 17 28  1  0  0  0  0
 18 27  1  0  0  0  0
 19  6  2  0  0  0  0
 20  8  1  0  0  0  0
 21  7  2  0  0  0  0
 22  7  1  0  0  0  0
 23 22  2  0  0  0  0
 24 21  1  0  0  0  0
 25 16  2  0  0  0  0
 26 16  1  0  0  0  0
 27 13  1  0  0  0  0
 28 13  1  0  0  0  0
 29  5  1  0  0  0  0
 30 10  1  0  0  0  0
 31  6  1  0  0  0  0
 32 33  1  0  0  0  0
 33 26  2  0  0  0  0
 34 25  1  0  0  0  0
 35 32  1  0  0  0  0
 36 20  1  0  0  0  0
 37 20  1  0  0  0  0
 38 20  1  0  0  0  0
 39 35  1  0  0  0  0
 24 15  2  0  0  0  0
 34 32  2  0  0  0  0
 18  4  1  0  0  0  0
M  END
>  <Mol Weight>
557.658

>  <Formula>
C28H35N3O7S

>  <chembl_id>
CHEMBL10492

$$$$

  Mrv0541 06201412482D          

 40 42  0  0  1  0            999 V2000
    3.9399   -0.6497    0.0000 C   0  0  0  0  0  0  0  0  0  0  0  0
    3.8025   -2.0740    0.0000 C   0  0  0  0  0  0  0  0  0  0  0  0
    3.4526   -1.3161    0.0000 C   0  0  0  0  0  0  0  0  0  0  0  0
   -0.8329    1.5743    0.0000 C   0  0  0  0  0  0  0  0  0  0  0  0
   -0.0833    1.2369    0.0000 O   0  0  0  0  0  0  0  0  0  0  0  0
    4.6146   -2.1532    0.0000 N   0  0  0  0  0  0  0  0  0  0  0  0
    4.7645   -0.7247    0.0000 C   0  0  0  0  0  0  0  0  0  0  0  0
   -0.7580    2.3989    0.0000 C   0  0  0  0  0  0  0  0  0  0  0  0
    5.7765   -2.9861    0.0000 C   0  0  0  0  0  0  0  0  0  0  0  0
    0.4665    1.8492    0.0000 C   0  0  0  0  0  0  0  0  0  0  0  0
    4.9519   -2.9029    0.0000 C   0  0  2  0  0  0  0  0  0  0  0  0
    0.0542    2.5696    0.0000 C   0  0  0  0  0  0  0  0  0  0  0  0
    2.6405   -1.2369    0.0000 C   0  0  0  0  0  0  0  0  0  0  0  0
   -1.5451    1.1620    0.0000 C   0  0  0  0  0  0  0  0  0  0  0  0
    3.6025    0.1000    0.0000 C   0  0  0  0  0  0  0  0  0  0  0  0
    3.3152   -2.7404    0.0000 O   0  0  0  0  0  0  0  0  0  0  0  0
    6.1139   -3.7358    0.0000 O   0  5  0  0  0  0  0  0  0  0  0  0
    6.2638   -2.3156    0.0000 O   0  0  0  0  0  0  0  0  0  0  0  0
    5.2393   -0.0542    0.0000 C   0  0  0  0  0  0  0  0  0  0  0  0
   -1.5451    0.3373    0.0000 C   0  0  0  0  0  0  0  0  0  0  0  0
   -2.2573    1.5701    0.0000 C   0  0  0  0  0  0  0  0  0  0  0  0
    2.7904    0.1832    0.0000 C   0  0  0  0  0  0  0  0  0  0  0  0
    2.3031   -0.4873    0.0000 C   0  0  0  0  0  0  0  0  0  0  0  0
   -2.9694    0.3331    0.0000 C   0  0  0  0  0  0  0  0  0  0  0  0
    4.4771   -3.5734    0.0000 C   0  0  0  0  0  0  0  0  0  0  0  0
    1.6285    1.0203    0.0000 O   0  0  0  0  0  0  0  0  0  0  0  0
   -2.2448   -0.0792    0.0000 C   0  0  0  0  0  0  0  0  0  0  0  0
   -2.9694    1.1578    0.0000 C   0  0  0  0  0  0  0  0  0  0  0  0
   -3.6816   -0.0875    0.0000 Cl  0  0  0  0  0  0  0  0  0  0  0  0
    3.1777   -4.1606    0.0000 S   0  0  0  0  0  0  0  0  0  0  0  0
    7.2259   -4.4272    0.0000 Li  0  3  0  0  0  0  0  0  0  0  0  0
    1.2911    1.7700    0.0000 C   0  0  0  0  0  0  0  0  0  0  0  0
    5.1019   -1.4743    0.0000 C   0  0  0  0  0  0  0  0  0  0  0  0
    2.4531    0.9371    0.0000 C   0  0  0  0  0  0  0  0  0  0  0  0
    3.6525   -3.4901    0.0000 C   0  0  0  0  0  0  0  0  0  0  0  0
    4.8895    0.6955    0.0000 C   0  0  0  0  0  0  0  0  0  0  0  0
    6.0514   -0.1291    0.0000 C   0  0  0  0  0  0  0  0  0  0  0  0
    2.3531   -4.0773    0.0000 C   0  0  0  0  0  0  0  0  0  0  0  0
    5.9265   -1.5618    0.0000 C   0  0  0  0  0  0  0  0  0  0  0  0
    6.4013   -0.8871    0.0000 C   0  0  0  0  0  0  0  0  0  0  0  0
  2  3  1  0  0  0  0
  3  1  1  0  0  0  0
  4  5  1  0  0  0  0
  5 10  1  0  0  0  0
  6  2  1  0  0  0  0
  7  1  1  0  0  0  0
  8 12  1  0  0  0  0
  9 11  1  0  0  0  0
 10 32  1  0  0  0  0
 11  6  1  0  0  0  0
 12 10  2  0  0  0  0
 13  3  2  0  0  0  0
 14  4  1  0  0  0  0
 15  1  2  0  0  0  0
 16  2  2  0  0  0  0
 17  9  1  0  0  0  0
 18  9  2  0  0  0  0
 19  7  1  0  0  0  0
 20 14  1  0  0  0  0
 21 14  2  0  0  0  0
 22 15  1  0  0  0  0
 23 22  2  0  0  0  0
 24 28  2  0  0  0  0
 11 25  1  6  0  0  0
 26 34  1  0  0  0  0
 27 20  2  0  0  0  0
 28 21  1  0  0  0  0
 29 24  1  0  0  0  0
 30 35  1  0  0  0  0
 32 26  1  0  0  0  0
 33  7  2  0  0  0  0
 34 22  1  0  0  0  0
 35 25  1  0  0  0  0
 36 19  1  0  0  0  0
 37 19  2  0  0  0  0
 38 30  1  0  0  0  0
 39 33  1  0  0  0  0
 40 39  2  0  0  0  0
 13 23  1  0  0  0  0
 37 40  1  0  0  0  0
  4  8  2  0  0  0  0
 27 24  1  0  0  0  0
M  CHG  2  17  -1  31   1
M  END
>  <Mol Weight>
570.025

>  <Formula>
C31H29ClLiNO5S

>  <chembl_id>
CHEMBL10877

$$$$

  Mrv0541 06201412482D          

 39 42  0  0  1  0            999 V2000
    8.6430   -3.0642    0.0000 C   0  0  1  0  0  0  0  0  0  0  0  0
    7.6563   -1.4155    0.0000 S   0  0  0  0  0  0  0  0  0  0  0  0
    7.8436   -2.8394    0.0000 C   0  0  0  0  0  0  0  0  0  0  0  0
    9.4590   -2.5022    0.0000 C   0  0  0  0  0  0  0  0  0  0  0  0
    6.8861   -0.2165    0.0000 C   0  0  2  0  0  0  0  0  0  0  0  0
    6.9236   -1.0409    0.0000 N   0  0  0  0  0  0  0  0  0  0  0  0
    8.3682   -1.8277    0.0000 C   0  0  0  0  0  0  0  0  0  0  0  0
    8.9094   -3.4347    0.0000 C   0  0  0  0  0  0  0  0  0  0  0  0
    7.5813    0.2248    0.0000 C   0  0  0  0  0  0  0  0  0  0  0  0
    0.5246   -1.7028    0.0000 C   0  0  0  0  0  0  0  0  0  0  0  0
    8.5722   -4.1383    0.0000 C   0  0  0  0  0  0  0  0  0  0  0  0
    9.6963   -2.8519    0.0000 C   0  0  0  0  0  0  0  0  0  0  0  0
    7.2358   -2.1275    0.0000 O   0  0  0  0  0  0  0  0  0  0  0  0
    8.0601   -0.7036    0.0000 O   0  0  0  0  0  0  0  0  0  0  0  0
    1.2282   -1.2740    0.0000 N   0  0  0  0  0  0  0  0  0  0  0  0
    3.3765   -1.6029    0.0000 C   0  0  0  0  0  0  0  0  0  0  0  0
    6.1575    0.1624    0.0000 C   0  0  0  0  0  0  0  0  0  0  0  0
    4.0717   -1.1658    0.0000 C   0  0  0  0  0  0  0  0  0  0  0  0
    8.8470   -4.5463    0.0000 C   0  0  0  0  0  0  0  0  0  0  0  0
    9.7213   -1.9526    0.0000 O   0  0  0  0  0  0  0  0  0  0  0  0
    2.6478   -1.2282    0.0000 C   0  0  0  0  0  0  0  0  0  0  0  0
    0.5413   -2.5271    0.0000 O   0  0  0  0  0  0  0  0  0  0  0  0
    1.9526   -1.6653    0.0000 C   0  0  0  0  0  0  0  0  0  0  0  0
    8.1351   -0.0666    0.0000 O   0  0  0  0  0  0  0  0  0  0  0  0
   -0.1956   -1.3031    0.0000 N   0  0  0  0  0  0  0  0  0  0  0  0
    4.8003   -1.5487    0.0000 C   0  0  0  0  0  0  0  0  0  0  0  0
    4.0342   -0.3414    0.0000 C   0  0  0  0  0  0  0  0  0  0  0  0
    5.4623   -0.2790    0.0000 C   0  0  0  0  0  0  0  0  0  0  0  0
    7.5481    1.0491    0.0000 O   0  0  0  0  0  0  0  0  0  0  0  0
    5.4955   -1.1033    0.0000 C   0  0  0  0  0  0  0  0  0  0  0  0
    4.7254    0.0999    0.0000 C   0  0  0  0  0  0  0  0  0  0  0  0
    7.7354   -2.1108    0.0000 C   0  0  0  0  0  0  0  0  0  0  0  0
    7.2608   -3.3015    0.0000 C   0  0  0  0  0  0  0  0  0  0  0  0
    3.4139   -2.4355    0.0000 C   0  0  0  0  0  0  0  0  0  0  0  0
    2.7145   -2.8769    0.0000 C   0  0  0  0  0  0  0  0  0  0  0  0
    1.9859   -2.4897    0.0000 C   0  0  0  0  0  0  0  0  0  0  0  0
   -0.8993   -1.7361    0.0000 C   0  0  0  0  0  0  0  0  0  0  0  0
   -1.6237   -1.3406    0.0000 C   0  0  0  0  0  0  0  0  0  0  0  0
   -2.3314   -1.7736    0.0000 C   0  0  0  0  0  0  0  0  0  0  0  0
  2  7  1  0  0  0  0
  3  1  1  0  0  0  0
  4  1  1  0  0  0  0
  5  6  1  1  0  0  0
  6  2  1  0  0  0  0
  1  7  1  1  0  0  0
  8  3  1  0  0  0  0
  9  5  1  0  0  0  0
 10 15  1  0  0  0  0
 11  1  1  0  0  0  0
 12  4  1  0  0  0  0
 13  2  2  0  0  0  0
 14  2  2  0  0  0  0
 15 23  1  0  0  0  0
 16 18  1  0  0  0  0
 17  5  1  0  0  0  0
 18 27  1  0  0  0  0
 19 11  1  0  0  0  0
 20  4  2  0  0  0  0
 21 16  2  0  0  0  0
 22 10  2  0  0  0  0
 23 21  1  0  0  0  0
 24  9  2  0  0  0  0
 25 10  1  0  0  0  0
 26 30  1  0  0  0  0
 27 31  2  0  0  0  0
 28 17  1  0  0  0  0
 29  9  1  0  0  0  0
 30 28  2  0  0  0  0
 31 28  1  0  0  0  0
 32  3  1  0  0  0  0
 33  3  1  0  0  0  0
 34 16  1  0  0  0  0
 35 34  2  0  0  0  0
 36 35  1  0  0  0  0
 37 25  1  0  0  0  0
 38 37  1  0  0  0  0
 39 38  1  0  0  0  0
 19  8  1  0  0  0  0
  8 12  1  0  0  0  0
 18 26  2  0  0  0  0
 36 23  2  0  0  0  0
M  END
>  <Mol Weight>
555.686

>  <Formula>
C29H37N3O6S

>  <chembl_id>
CHEMBL10737

$$$$

  Mrv0541 06201412482D          

 43 46  0  0  0  0            999 V2000
    2.6238   -0.3540    0.0000 C   0  0  0  0  0  0  0  0  0  0  0  0
    2.2240   -1.0745    0.0000 C   0  0  0  0  0  0  0  0  0  0  0  0
    3.4276   -0.5123    0.0000 N   0  0  0  0  0  0  0  0  0  0  0  0
    3.5359   -1.3286    0.0000 C   0  0  0  0  0  0  0  0  0  0  0  0
    2.7862   -1.6784    0.0000 N   0  0  0  0  0  0  0  0  0  0  0  0
    8.5628   -2.4114    0.0000 C   0  0  0  0  0  0  0  0  0  0  0  0
    7.8631   -2.8487    0.0000 N   0  0  0  0  0  0  0  0  0  0  0  0
    7.8881   -3.6733    0.0000 C   0  0  0  0  0  0  0  0  0  0  0  0
    7.1884   -4.1023    0.0000 C   0  0  0  0  0  0  0  0  0  0  0  0
    8.5378   -1.5910    0.0000 N   0  0  0  0  0  0  0  0  0  0  0  0
    7.2134   -4.9269    0.0000 C   0  0  0  0  0  0  0  0  0  0  0  0
    2.2740    0.3956    0.0000 C   0  0  0  0  0  0  0  0  0  0  0  0
    1.4036   -1.1787    0.0000 C   0  0  0  0  0  0  0  0  0  0  0  0
    9.2957   -2.8029    0.0000 O   0  0  0  0  0  0  0  0  0  0  0  0
    4.2605   -1.7242    0.0000 S   0  0  0  0  0  0  0  0  0  0  0  0
    8.6127   -4.0523    0.0000 C   0  0  0  0  0  0  0  0  0  0  0  0
    7.9464   -5.3143    0.0000 C   0  0  0  0  0  0  0  0  0  0  0  0
    6.4637   -3.7150    0.0000 F   0  0  0  0  0  0  0  0  0  0  0  0
    8.6460   -4.8770    0.0000 C   0  0  0  0  0  0  0  0  0  0  0  0
    7.9713   -6.1389    0.0000 F   0  0  0  0  0  0  0  0  0  0  0  0
   12.8233   -1.4535    0.0000 O   0  0  0  0  0  0  0  0  0  0  0  0
   10.6701   -1.1037    0.0000 O   0  0  0  0  0  0  0  0  0  0  0  0
    9.2375   -1.1537    0.0000 C   0  0  0  0  0  0  0  0  0  0  0  0
    7.8131   -1.1994    0.0000 C   0  0  0  0  0  0  0  0  0  0  0  0
    1.0912   -1.9283    0.0000 C   0  0  0  0  0  0  0  0  0  0  0  0
    1.4535    0.4581    0.0000 C   0  0  0  0  0  0  0  0  0  0  0  0
    2.7487    1.0703    0.0000 C   0  0  0  0  0  0  0  0  0  0  0  0
    0.9121   -0.5165    0.0000 C   0  0  0  0  0  0  0  0  0  0  0  0
    4.9602   -1.2911    0.0000 C   0  0  0  0  0  0  0  0  0  0  0  0
    9.9704   -1.5410    0.0000 C   0  0  0  0  0  0  0  0  0  0  0  0
   12.0986   -1.0662    0.0000 C   0  0  0  0  0  0  0  0  0  0  0  0
   11.3990   -1.4993    0.0000 C   0  0  0  0  0  0  0  0  0  0  0  0
   13.5230   -1.0162    0.0000 C   0  0  0  0  0  0  0  0  0  0  0  0
    7.1134   -1.6285    0.0000 C   0  0  0  0  0  0  0  0  0  0  0  0
    5.6891   -1.6784    0.0000 C   0  0  0  0  0  0  0  0  0  0  0  0
    6.3888   -1.2411    0.0000 C   0  0  0  0  0  0  0  0  0  0  0  0
   14.2477   -1.4036    0.0000 C   0  0  0  0  0  0  0  0  0  0  0  0
    2.3989    1.8117    0.0000 C   0  0  0  0  0  0  0  0  0  0  0  0
    0.0917   -0.6164    0.0000 C   0  0  0  0  0  0  0  0  0  0  0  0
    0.2749   -2.0408    0.0000 C   0  0  0  0  0  0  0  0  0  0  0  0
    1.1037    1.2077    0.0000 C   0  0  0  0  0  0  0  0  0  0  0  0
    1.5785    1.8949    0.0000 C   0  0  0  0  0  0  0  0  0  0  0  0
   -0.2249   -1.3786    0.0000 C   0  0  0  0  0  0  0  0  0  0  0  0
  2  1  2  0  0  0  0
  3  1  1  0  0  0  0
  4  3  2  0  0  0  0
  5  2  1  0  0  0  0
  6 10  1  0  0  0  0
  7  6  1  0  0  0  0
  8  7  1  0  0  0  0
  9  8  2  0  0  0  0
 10 24  1  0  0  0  0
 11  9  1  0  0  0  0
 12  1  1  0  0  0  0
 13  2  1  0  0  0  0
 14  6  2  0  0  0  0
 15  4  1  0  0  0  0
 16  8  1  0  0  0  0
 17 19  1  0  0  0  0
 18  9  1  0  0  0  0
 19 16  2  0  0  0  0
 20 17  1  0  0  0  0
 21 31  1  0  0  0  0
 22 30  1  0  0  0  0
 23 10  1  0  0  0  0
 24 34  1  0  0  0  0
 25 13  1  0  0  0  0
 26 12  1  0  0  0  0
 27 12  2  0  0  0  0
 28 13  2  0  0  0  0
 29 15  1  0  0  0  0
 30 23  1  0  0  0  0
 31 32  1  0  0  0  0
 32 22  1  0  0  0  0
 33 21  1  0  0  0  0
 34 36  1  0  0  0  0
 35 29  1  0  0  0  0
 36 35  1  0  0  0  0
 37 33  1  0  0  0  0
 38 27  1  0  0  0  0
 39 28  1  0  0  0  0
 40 25  2  0  0  0  0
 41 26  2  0  0  0  0
 42 38  2  0  0  0  0
 43 39  2  0  0  0  0
  4  5  1  0  0  0  0
 42 41  1  0  0  0  0
 43 40  1  0  0  0  0
 17 11  2  0  0  0  0
M  END
>  <Mol Weight>
608.742

>  <Formula>
C33H38F2N4O3S

>  <chembl_id>
CHEMBL10844

$$$$

  Mrv0541 06201412482D          

 46 50  0  0  0  0            999 V2000
   -5.1851  -22.4837    0.0000 C   0  0  0  0  0  0  0  0  0  0  0  0
   -5.1851  -23.3087    0.0000 C   0  0  2  0  0  0  0  0  0  0  0  0
   -4.4730  -23.7191    0.0000 C   0  0  0  0  0  0  0  0  0  0  0  0
   -4.4730  -22.0691    0.0000 C   0  0  0  0  0  0  0  0  0  0  0  0
   -3.7608  -22.4837    0.0000 C   0  0  1  0  0  0  0  0  0  0  0  0
   -3.7593  -23.3087    0.0000 C   0  0  2  0  0  0  0  0  0  0  0  0
   -3.0486  -23.7206    0.0000 C   0  0  0  0  0  0  0  0  0  0  0  0
   -2.3326  -23.3102    0.0000 C   0  0  2  0  0  0  0  0  0  0  0  0
   -3.0518  -22.0706    0.0000 C   0  0  2  0  0  0  0  0  0  0  0  0
   -2.3313  -22.4861    0.0000 C   0  0  2  0  0  0  0  0  0  0  0  0
   -2.3331  -20.8294    0.0000 C   0  0  1  0  0  0  0  0  0  0  0  0
   -3.0533  -21.2435    0.0000 C   0  0  0  0  0  0  0  0  0  0  0  0
   -1.6168  -21.2450    0.0000 C   0  0  1  0  0  0  0  0  0  0  0  0
   -1.6215  -22.0726    0.0000 C   0  0  1  0  0  0  0  0  0  0  0  0
   -0.8319  -22.3322    0.0000 C   0  0  0  0  0  0  0  0  0  0  0  0
   -0.3434  -21.6640    0.0000 C   0  0  0  0  0  0  0  0  0  0  0  0
   -0.8284  -20.9904    0.0000 C   0  0  2  0  0  0  0  0  0  0  0  0
   -3.0550  -22.8941    0.0000 H   0  0  0  0  0  0  0  0  0  0  0  0
   -0.5668  -20.2072    0.0000 C   0  0  1  0  0  0  0  0  0  0  0  0
    0.1499  -19.8040    0.0000 C   0  0  0  0  0  0  0  0  0  0  0  0
   -1.1206  -19.5918    0.0000 C   0  0  0  0  0  0  0  0  0  0  0  0
    0.8589  -20.2298    0.0000 C   0  0  0  0  0  0  0  0  0  0  0  0
    1.5780  -19.8214    0.0000 C   0  0  0  0  0  0  0  0  0  0  0  0
    2.2885  -20.2444    0.0000 N   0  0  0  0  0  0  0  0  0  0  0  0
    1.5874  -18.9972    0.0000 O   0  0  0  0  0  0  0  0  0  0  0  0
   -3.7679  -21.6587    0.0000 C   0  0  0  0  0  0  0  0  0  0  0  0
   -3.7657  -24.1316    0.0000 H   0  0  0  0  0  0  0  0  0  0  0  0
   -2.3399  -21.6566    0.0000 H   0  0  0  0  0  0  0  0  0  0  0  0
   -1.6249  -20.4191    0.0000 C   0  0  0  0  0  0  0  0  0  0  0  0
   -1.6271  -22.8962    0.0000 H   0  0  0  0  0  0  0  0  0  0  0  0
   -0.0034  -20.9904    0.0000 H   0  0  0  0  0  0  0  0  0  0  0  0
    3.0084  -19.8415    0.0000 N   0  0  0  0  0  0  0  0  0  0  0  0
    3.7173  -20.2636    0.0000 C   0  0  0  0  0  0  0  0  0  0  0  0
    4.4372  -19.8607    0.0000 C   0  0  0  0  0  0  0  0  0  0  0  0
    5.1437  -20.2843    0.0000 C   0  0  0  0  0  0  0  0  0  0  0  0
    5.8631  -19.8821    0.0000 C   0  0  0  0  0  0  0  0  0  0  0  0
    5.8747  -19.0563    0.0000 C   0  0  0  0  0  0  0  0  0  0  0  0
    5.1608  -18.6343    0.0000 C   0  0  0  0  0  0  0  0  0  0  0  0
    4.4442  -19.0389    0.0000 C   0  0  0  0  0  0  0  0  0  0  0  0
    5.1298  -21.1073    0.0000 O   0  0  0  0  0  0  0  0  0  0  0  0
    5.8379  -21.5306    0.0000 C   0  0  0  0  0  0  0  0  0  0  0  0
    5.1705  -17.8116    0.0000 O   0  0  0  0  0  0  0  0  0  0  0  0
    4.4602  -17.3921    0.0000 C   0  0  0  0  0  0  0  0  0  0  0  0
   -5.8959  -23.7228    0.0000 O   0  0  0  0  0  0  0  0  0  0  0  0
   -1.6217  -23.7240    0.0000 O   0  0  0  0  0  0  0  0  0  0  0  0
   -2.3315  -20.0044    0.0000 O   0  0  0  0  0  0  0  0  0  0  0  0
 11 12  1  0  0  0  0
 13 14  1  0  0  0  0
 14 15  1  0  0  0  0
 15 16  1  0  0  0  0
 16 17  1  0  0  0  0
 17 13  1  0  0  0  0
  9 18  1  6  0  0  0
 17 19  1  0  0  0  0
 19 20  1  0  0  0  0
 19 21  1  6  0  0  0
 20 22  1  0  0  0  0
 22 23  1  0  0  0  0
 23 24  1  0  0  0  0
 23 25  2  0  0  0  0
  5 26  1  1  0  0  0
  6 27  1  1  0  0  0
 10 28  1  1  0  0  0
 13 29  1  1  0  0  0
 14 30  1  6  0  0  0
 17 31  1  6  0  0  0
 24 32  1  0  0  0  0
  1  2  1  0  0  0  0
 32 33  2  0  0  0  0
  1  4  1  0  0  0  0
 33 34  1  0  0  0  0
  2  3  1  0  0  0  0
 34 35  2  0  0  0  0
  3  6  1  0  0  0  0
 35 36  1  0  0  0  0
  5  4  1  0  0  0  0
 36 37  2  0  0  0  0
  5  6  1  0  0  0  0
 37 38  1  0  0  0  0
  5  9  1  0  0  0  0
 38 39  2  0  0  0  0
 39 34  1  0  0  0  0
  6  7  1  0  0  0  0
  7  8  1  0  0  0  0
 40 41  1  0  0  0  0
 35 40  1  0  0  0  0
  8 10  1  0  0  0  0
  9 10  1  0  0  0  0
 42 43  1  0  0  0  0
 38 42  1  0  0  0  0
  9 12  1  0  0  0  0
 10 14  1  0  0  0  0
 13 11  1  0  0  0  0
  8 45  1  6  0  0  0
  2 44  1  6  0  0  0
 11 46  1  6  0  0  0
M  END
>  <Mol Weight>
570.7599

>  <Formula>
C33H50N2O6

>  <chembl_id>
CHEMBL1163342

$$$$

  Mrv0541 06201412482D          

 41 43  0  0  1  0            999 V2000
    6.7667   -0.5417    0.0000 S   0  0  0  0  0  0  0  0  0  0  0  0
    6.0375   -0.1667    0.0000 N   0  0  0  0  0  0  0  0  0  0  0  0
    7.4792   -0.9542    0.0000 C   0  0  0  0  0  0  0  0  0  0  0  0
    6.0000    0.6583    0.0000 C   0  0  2  0  0  0  0  0  0  0  0  0
    7.4792   -1.7750    0.0000 C   0  0  0  0  0  0  0  0  0  0  0  0
    8.1917   -0.5417    0.0000 C   0  0  0  0  0  0  0  0  0  0  0  0
   -3.9458   -0.5042    0.0000 C   0  0  0  0  0  0  0  0  0  0  0  0
    6.6917    1.1000    0.0000 C   0  0  0  0  0  0  0  0  0  0  0  0
   -0.3708   -0.8292    0.0000 C   0  0  0  0  0  0  0  0  0  0  0  0
    7.1750    0.1708    0.0000 O   0  0  0  0  0  0  0  0  0  0  0  0
    6.3500   -1.2542    0.0000 O   0  0  0  0  0  0  0  0  0  0  0  0
    0.3375   -0.4000    0.0000 N   0  0  0  0  0  0  0  0  0  0  0  0
    2.4875   -0.7292    0.0000 C   0  0  0  0  0  0  0  0  0  0  0  0
    8.1875   -2.1875    0.0000 C   0  0  0  0  0  0  0  0  0  0  0  0
    8.9000   -0.9500    0.0000 C   0  0  0  0  0  0  0  0  0  0  0  0
    5.2667    1.0375    0.0000 C   0  0  0  0  0  0  0  0  0  0  0  0
    3.1792   -0.2917    0.0000 C   0  0  0  0  0  0  0  0  0  0  0  0
    1.7542   -0.3542    0.0000 C   0  0  0  0  0  0  0  0  0  0  0  0
   -0.3500   -1.6542    0.0000 O   0  0  0  0  0  0  0  0  0  0  0  0
    1.0625   -0.7917    0.0000 C   0  0  0  0  0  0  0  0  0  0  0  0
    7.2500    0.8083    0.0000 O   0  0  0  0  0  0  0  0  0  0  0  0
    8.9042   -1.7792    0.0000 C   0  0  0  0  0  0  0  0  0  0  0  0
   -3.2208   -0.9000    0.0000 S   0  0  0  0  0  0  0  0  0  0  0  0
   -1.0875   -0.4292    0.0000 N   0  0  0  0  0  0  0  0  0  0  0  0
    3.1417    0.5333    0.0000 C   0  0  0  0  0  0  0  0  0  0  0  0
    3.9125   -0.6750    0.0000 C   0  0  0  0  0  0  0  0  0  0  0  0
   -4.6583   -0.9417    0.0000 F   0  0  0  0  0  0  0  0  0  0  0  0
   -3.9708    0.3208    0.0000 F   0  0  0  0  0  0  0  0  0  0  0  0
   -4.6625   -0.0917    0.0000 F   0  0  0  0  0  0  0  0  0  0  0  0
    4.5750    0.5958    0.0000 C   0  0  0  0  0  0  0  0  0  0  0  0
    6.6625    1.9250    0.0000 O   0  0  0  0  0  0  0  0  0  0  0  0
    4.6042   -0.2292    0.0000 C   0  0  0  0  0  0  0  0  0  0  0  0
    3.8375    0.9750    0.0000 C   0  0  0  0  0  0  0  0  0  0  0  0
    6.7625   -2.1875    0.0000 C   0  0  0  0  0  0  0  0  0  0  0  0
    8.1875    0.2833    0.0000 C   0  0  0  0  0  0  0  0  0  0  0  0
    2.5250   -1.5625    0.0000 C   0  0  0  0  0  0  0  0  0  0  0  0
    1.8250   -2.0042    0.0000 C   0  0  0  0  0  0  0  0  0  0  0  0
    1.0917   -1.6167    0.0000 C   0  0  0  0  0  0  0  0  0  0  0  0
   -1.7958   -0.8625    0.0000 C   0  0  0  0  0  0  0  0  0  0  0  0
    9.6167   -2.1917    0.0000 C   0  0  0  0  0  0  0  0  0  0  0  0
   -2.5208   -0.4667    0.0000 C   0  0  0  0  0  0  0  0  0  0  0  0
  2  1  1  0  0  0  0
  3  1  1  0  0  0  0
  4  2  1  1  0  0  0
  5  3  2  0  0  0  0
  6  3  1  0  0  0  0
  7 23  1  0  0  0  0
  8  4  1  0  0  0  0
  9 12  1  0  0  0  0
 10  1  2  0  0  0  0
 11  1  2  0  0  0  0
 12 20  1  0  0  0  0
 13 17  1  0  0  0  0
 14  5  1  0  0  0  0
 15  6  2  0  0  0  0
 16  4  1  0  0  0  0
 17 25  1  0  0  0  0
 18 13  2  0  0  0  0
 19  9  2  0  0  0  0
 20 18  1  0  0  0  0
 21  8  2  0  0  0  0
 22 15  1  0  0  0  0
 23 41  1  0  0  0  0
 24  9  1  0  0  0  0
 25 33  2  0  0  0  0
 26 32  1  0  0  0  0
 27  7  1  0  0  0  0
 28  7  1  0  0  0  0
 29  7  1  0  0  0  0
 30 16  1  0  0  0  0
 31  8  1  0  0  0  0
 32 30  2  0  0  0  0
 33 30  1  0  0  0  0
 34  5  1  0  0  0  0
 35  6  1  0  0  0  0
 36 13  1  0  0  0  0
 37 36  2  0  0  0  0
 38 37  1  0  0  0  0
 39 24  1  0  0  0  0
 40 22  1  0  0  0  0
 41 39  1  0  0  0  0
 22 14  2  0  0  0  0
 17 26  2  0  0  0  0
 38 20  2  0  0  0  0
M  END
>  <Mol Weight>
609.68

>  <Formula>
C28H30F3N3O5S2

>  <chembl_id>
CHEMBL10803

$$$$

  Mrv0541 06201412482D          

 40 42  0  0  0  0            999 V2000
    1.3278   -5.8606    0.0000 C   0  0  0  0  0  0  0  0  0  0  0  0
    1.2030   -6.6723    0.0000 C   0  0  0  0  0  0  0  0  0  0  0  0
    0.4662   -7.0469    0.0000 C   0  0  0  0  0  0  0  0  0  0  0  0
    2.1103   -5.5984    0.0000 C   0  0  0  0  0  0  0  0  0  0  0  0
    0.7409   -5.2738    0.0000 C   0  0  0  0  0  0  0  0  0  0  0  0
   -0.9948   -7.7962    0.0000 C   0  0  0  0  0  0  0  0  0  0  0  0
   -1.4318   -5.1239    0.0000 C   0  0  0  0  0  0  0  0  0  0  0  0
   -0.6326   -4.9116    0.0000 C   0  0  0  0  0  0  0  0  0  0  0  0
   -0.9573   -6.9720    0.0000 C   0  0  0  0  0  0  0  0  0  0  0  0
   -0.0582   -5.4860    0.0000 C   0  0  0  0  0  0  0  0  0  0  0  0
    1.8606   -7.2467    0.0000 C   0  0  0  0  0  0  0  0  0  0  0  0
   -0.3080   -8.2457    0.0000 C   0  0  0  0  0  0  0  0  0  0  0  0
   -0.2206   -6.5974    0.0000 C   0  0  0  0  0  0  0  0  0  0  0  0
    0.4288   -7.8711    0.0000 C   0  0  0  0  0  0  0  0  0  0  0  0
   -1.7939   -8.0209    0.0000 O   0  0  0  0  0  0  0  0  0  0  0  0
   -1.7315   -6.6848    0.0000 O   0  0  0  0  0  0  0  0  0  0  0  0
    2.2768   -4.7992    0.0000 C   0  0  0  0  0  0  0  0  0  0  0  0
   -1.6441   -5.9231    0.0000 C   0  0  0  0  0  0  0  0  0  0  0  0
   -2.2435   -7.3341    0.0000 C   0  0  0  0  0  0  0  0  0  0  0  0
    2.7638   -7.0469    0.0000 O   0  5  0  0  0  0  0  0  0  0  0  0
    2.7222   -6.1479    0.0000 O   0  0  0  0  0  0  0  0  0  0  0  0
   -0.2580   -6.2852    0.0000 C   0  0  0  0  0  0  0  0  0  0  0  0
    1.7357   -8.0459    0.0000 O   0  0  0  0  0  0  0  0  0  0  0  0
   -1.0572   -6.4975    0.0000 C   0  0  0  0  0  0  0  0  0  0  0  0
    3.0635   -4.5703    0.0000 C   0  0  0  0  0  0  0  0  0  0  0  0
    1.6775   -4.2373    0.0000 C   0  0  0  0  0  0  0  0  0  0  0  0
   -2.0104   -4.5453    0.0000 O   0  0  0  0  0  0  0  0  0  0  0  0
   -0.4246   -4.1125    0.0000 O   0  0  0  0  0  0  0  0  0  0  0  0
   -0.3496   -9.0698    0.0000 O   0  0  0  0  0  0  0  0  0  0  0  0
    2.6639   -3.2092    0.0000 C   0  0  0  0  0  0  0  0  0  0  0  0
    3.2508   -3.7753    0.0000 C   0  0  0  0  0  0  0  0  0  0  0  0
    1.8731   -3.4382    0.0000 C   0  0  0  0  0  0  0  0  0  0  0  0
   -2.4433   -6.1354    0.0000 O   0  0  0  0  0  0  0  0  0  0  0  0
    4.5620   -6.7972    0.0000 Na  0  3  0  0  0  0  0  0  0  0  0  0
    2.8595   -2.4017    0.0000 O   0  0  0  0  0  0  0  0  0  0  0  0
   -2.8096   -4.7576    0.0000 C   0  0  0  0  0  0  0  0  0  0  0  0
    0.3746   -3.9002    0.0000 C   0  0  0  0  0  0  0  0  0  0  0  0
   -1.0864   -9.4444    0.0000 C   0  0  0  0  0  0  0  0  0  0  0  0
   -3.0219   -5.5568    0.0000 C   0  0  0  0  0  0  0  0  0  0  0  0
    3.6462   -2.1728    0.0000 C   0  0  0  0  0  0  0  0  0  0  0  0
  2  1  2  0  0  0  0
  3  2  1  0  0  0  0
  4  1  1  0  0  0  0
  5  1  1  0  0  0  0
  6 12  1  0  0  0  0
  7  8  1  0  0  0  0
  8 10  2  0  0  0  0
  9 13  1  0  0  0  0
 10  5  1  0  0  0  0
 11  2  1  0  0  0  0
 12 14  2  0  0  0  0
 13  3  2  0  0  0  0
 14  3  1  0  0  0  0
 15  6  1  0  0  0  0
 16  9  1  0  0  0  0
 17  4  1  0  0  0  0
 18 24  1  0  0  0  0
 19 16  1  0  0  0  0
 20 11  1  0  0  0  0
 21  4  2  0  0  0  0
 22 10  1  0  0  0  0
 23 11  2  0  0  0  0
 24 22  2  0  0  0  0
 25 17  2  0  0  0  0
 26 17  1  0  0  0  0
 27  7  1  0  0  0  0
 28  8  1  0  0  0  0
 29 12  1  0  0  0  0
 30 32  1  0  0  0  0
 31 25  1  0  0  0  0
 32 26  2  0  0  0  0
 33 18  1  0  0  0  0
 35 30  1  0  0  0  0
 36 27  1  0  0  0  0
 37 28  1  0  0  0  0
 38 29  1  0  0  0  0
 39 33  1  0  0  0  0
 40 35  1  0  0  0  0
 30 31  2  0  0  0  0
  9  6  2  0  0  0  0
 18  7  2  0  0  0  0
 15 19  1  0  0  0  0
M  CHG  2  20  -1  34   1
M  END
>  <Mol Weight>
558.5084

>  <Formula>
C29H27NaO10

>  <chembl_id>
CHEMBL10862

$$$$

  Mrv0541 06201412482D          

 38 42  0  0  1  0            999 V2000
    5.0939   -0.8420    0.0000 C   0  0  0  0  0  0  0  0  0  0  0  0
    5.8046   -0.4231    0.0000 C   0  0  2  0  0  0  0  0  0  0  0  0
    3.6470   -1.6670    0.0000 C   0  0  2  0  0  0  0  0  0  0  0  0
    2.9446   -2.0858    0.0000 C   0  0  0  0  0  0  0  0  0  0  0  0
    5.0896   -1.6670    0.0000 C   0  0  0  0  0  0  0  0  0  0  0  0
    4.3704   -2.0858    0.0000 C   0  0  0  0  0  0  0  0  0  0  0  0
    2.9446   -2.9065    0.0000 C   0  0  0  0  0  0  0  0  0  0  0  0
    8.0850   -0.2538    0.0000 C   0  0  0  0  0  0  0  0  0  0  0  0
    6.4646   -0.0296    0.0000 O   0  0  0  0  0  0  0  0  0  0  0  0
    7.2896    0.0973    0.0000 C   0  0  0  0  0  0  0  0  0  0  0  0
    3.6470   -0.8377    0.0000 C   0  0  0  0  0  0  0  0  0  0  0  0
    4.3788   -0.4231    0.0000 C   0  0  0  0  0  0  0  0  0  0  0  0
    6.5281   -0.8504    0.0000 C   0  0  0  0  0  0  0  0  0  0  0  0
    2.2381   -1.6754    0.0000 C   0  0  0  0  0  0  0  0  0  0  0  0
    6.5238   -1.6796    0.0000 C   0  0  0  0  0  0  0  0  0  0  0  0
    5.8046    0.3892    0.0000 C   0  0  0  0  0  0  0  0  0  0  0  0
    2.2381   -3.3127    0.0000 C   0  0  0  0  0  0  0  0  0  0  0  0
    4.3704   -2.9065    0.0000 C   0  0  0  0  0  0  0  0  0  0  0  0
    1.5358   -2.0858    0.0000 C   0  0  0  0  0  0  0  0  0  0  0  0
    1.5358   -2.9065    0.0000 C   0  0  0  0  0  0  0  0  0  0  0  0
    8.2627   -1.1042    0.0000 C   0  0  0  0  0  0  0  0  0  0  0  0
    3.6470   -3.3170    0.0000 C   0  0  0  0  0  0  0  0  0  0  0  0
    8.8254    0.1861    0.0000 C   0  0  0  0  0  0  0  0  0  0  0  0
    7.2135    2.0519    0.0000 C   0  0  0  0  0  0  0  0  0  0  0  0
    9.1300   -1.1973    0.0000 O   0  0  0  0  0  0  0  0  0  0  0  0
    7.3150    0.8250    0.0000 O   0  0  0  0  0  0  0  0  0  0  0  0
    3.6470   -2.4793    0.0000 Cl  0  0  0  0  0  0  0  0  0  0  0  0
    6.4985    0.8080    0.0000 C   0  0  0  0  0  0  0  0  0  0  0  0
    9.4854   -0.4062    0.0000 C   0  0  0  0  0  0  0  0  0  0  0  0
    5.0896    0.7954    0.0000 O   0  0  0  0  0  0  0  0  0  0  0  0
    6.4900    1.6246    0.0000 O   0  0  0  0  0  0  0  0  0  0  0  0
    7.2008    2.8896    0.0000 O   0  0  0  0  0  0  0  0  0  0  0  0
    0.8293   -3.3043    0.0000 O   0  0  0  0  0  0  0  0  0  0  0  0
    2.9446   -0.4231    0.0000 Cl  0  0  0  0  0  0  0  0  0  0  0  0
    5.0896   -0.0296    0.0000 C   0  0  0  0  0  0  0  0  0  0  0  0
    2.9362   -1.2692    0.0000 C   0  0  0  0  0  0  0  0  0  0  0  0
    7.3404   -0.8504    0.0000 C   0  0  0  0  0  0  0  0  0  0  0  0
    7.9454    1.6373    0.0000 C   0  0  0  0  0  0  0  0  0  0  0  0
  2  1  1  0  0  0  0
  3 11  1  0  0  0  0
  4  3  1  0  0  0  0
  5  1  1  0  0  0  0
  6  5  1  0  0  0  0
  7  4  1  0  0  0  0
  8 10  1  0  0  0  0
  2  9  1  6  0  0  0
 10  9  1  0  0  0  0
 11 12  1  0  0  0  0
 12  1  1  0  0  0  0
 13  2  1  0  0  0  0
 14  4  1  0  0  0  0
 15  5  1  0  0  0  0
 16  2  1  0  0  0  0
 17  7  2  0  0  0  0
 18  6  1  0  0  0  0
 19 14  2  0  0  0  0
 20 19  1  0  0  0  0
 21  8  2  0  0  0  0
 22 18  1  0  0  0  0
 23  8  1  0  0  0  0
 24 31  1  0  0  0  0
 25 21  1  0  0  0  0
 26 10  2  0  0  0  0
  3 27  1  6  0  0  0
 28 16  1  0  0  0  0
 29 23  2  0  0  0  0
 30 16  2  0  0  0  0
 31 28  1  0  0  0  0
 32 24  2  0  0  0  0
 33 20  2  0  0  0  0
 34 11  1  0  0  0  0
 35  1  1  0  0  0  0
 36  4  1  0  0  0  0
 13 37  1  0  0  0  0
 38 24  1  0  0  0  0
 15 13  1  0  0  0  0
  6  3  1  0  0  0  0
  7 22  1  0  0  0  0
 25 29  1  0  0  0  0
 17 20  1  0  0  0  0
M  END
>  <Mol Weight>
563.466

>  <Formula>
C29H32Cl2O7

>  <chembl_id>
CHEMBL10617

$$$$

  Mrv0541 06201412482D          

 36 38  0  0  1  0            999 V2000
    6.7534   -1.4623    0.0000 S   0  0  0  0  0  0  0  0  0  0  0  0
    7.4658   -1.8748    0.0000 C   0  0  0  0  0  0  0  0  0  0  0  0
    6.0160   -1.0874    0.0000 N   0  0  0  0  0  0  0  0  0  0  0  0
    5.9785   -0.2625    0.0000 C   0  0  2  0  0  0  0  0  0  0  0  0
    7.4533   -2.6997    0.0000 C   0  0  0  0  0  0  0  0  0  0  0  0
    6.6784    0.1833    0.0000 C   0  0  0  0  0  0  0  0  0  0  0  0
   -0.3833   -1.7498    0.0000 C   0  0  0  0  0  0  0  0  0  0  0  0
    7.1534   -0.7499    0.0000 O   0  0  0  0  0  0  0  0  0  0  0  0
    6.3285   -2.1748    0.0000 O   0  0  0  0  0  0  0  0  0  0  0  0
    0.3167   -1.3165    0.0000 N   0  0  0  0  0  0  0  0  0  0  0  0
    2.4664   -1.6498    0.0000 C   0  0  0  0  0  0  0  0  0  0  0  0
    5.2536    0.1208    0.0000 C   0  0  0  0  0  0  0  0  0  0  0  0
    8.1658   -3.1038    0.0000 C   0  0  0  0  0  0  0  0  0  0  0  0
    3.1663   -1.2124    0.0000 C   0  0  0  0  0  0  0  0  0  0  0  0
    1.7415   -1.2749    0.0000 C   0  0  0  0  0  0  0  0  0  0  0  0
   -0.3708   -2.5747    0.0000 O   0  0  0  0  0  0  0  0  0  0  0  0
    1.0416   -1.7123    0.0000 C   0  0  0  0  0  0  0  0  0  0  0  0
    7.2284   -0.1125    0.0000 O   0  0  0  0  0  0  0  0  0  0  0  0
    6.7409   -3.1038    0.0000 Cl  0  0  0  0  0  0  0  0  0  0  0  0
   -1.1082   -1.3498    0.0000 N   0  0  0  0  0  0  0  0  0  0  0  0
    3.8913   -1.5915    0.0000 C   0  0  0  0  0  0  0  0  0  0  0  0
    3.1288   -0.3875    0.0000 C   0  0  0  0  0  0  0  0  0  0  0  0
    4.5537   -0.3250    0.0000 C   0  0  0  0  0  0  0  0  0  0  0  0
    8.1658   -1.4623    0.0000 C   0  0  0  0  0  0  0  0  0  0  0  0
    6.6409    1.0082    0.0000 O   0  0  0  0  0  0  0  0  0  0  0  0
    8.1658   -3.9287    0.0000 Cl  0  0  0  0  0  0  0  0  0  0  0  0
    4.5912   -1.1499    0.0000 C   0  0  0  0  0  0  0  0  0  0  0  0
    3.8163    0.0583    0.0000 C   0  0  0  0  0  0  0  0  0  0  0  0
    2.5039   -2.4789    0.0000 C   0  0  0  0  0  0  0  0  0  0  0  0
    8.8782   -1.8748    0.0000 C   0  0  0  0  0  0  0  0  0  0  0  0
    1.8040   -2.9247    0.0000 C   0  0  0  0  0  0  0  0  0  0  0  0
    8.8782   -2.6914    0.0000 C   0  0  0  0  0  0  0  0  0  0  0  0
    1.0791   -2.5372    0.0000 C   0  0  0  0  0  0  0  0  0  0  0  0
   -1.8081   -1.7790    0.0000 C   0  0  0  0  0  0  0  0  0  0  0  0
   -2.5330   -1.3873    0.0000 C   0  0  0  0  0  0  0  0  0  0  0  0
   -3.2454   -1.8165    0.0000 C   0  0  0  0  0  0  0  0  0  0  0  0
  2  1  1  0  0  0  0
  3  1  1  0  0  0  0
  4  3  1  1  0  0  0
  5  2  2  0  0  0  0
  6  4  1  0  0  0  0
  7 10  1  0  0  0  0
  8  1  2  0  0  0  0
  9  1  2  0  0  0  0
 10 17  1  0  0  0  0
 11 14  1  0  0  0  0
 12  4  1  0  0  0  0
 13  5  1  0  0  0  0
 14 22  1  0  0  0  0
 15 11  2  0  0  0  0
 16  7  2  0  0  0  0
 17 15  1  0  0  0  0
 18  6  2  0  0  0  0
 19  5  1  0  0  0  0
 20  7  1  0  0  0  0
 21 27  1  0  0  0  0
 22 28  2  0  0  0  0
 23 12  1  0  0  0  0
 24  2  1  0  0  0  0
 25  6  1  0  0  0  0
 26 13  1  0  0  0  0
 27 23  2  0  0  0  0
 28 23  1  0  0  0  0
 29 11  1  0  0  0  0
 30 24  2  0  0  0  0
 31 29  2  0  0  0  0
 32 30  1  0  0  0  0
 33 31  1  0  0  0  0
 34 20  1  0  0  0  0
 35 34  1  0  0  0  0
 36 35  1  0  0  0  0
 13 32  2  0  0  0  0
 14 21  2  0  0  0  0
 33 17  2  0  0  0  0
M  END
>  <Mol Weight>
550.454

>  <Formula>
C25H25Cl2N3O5S

>  <chembl_id>
CHEMBL10718

$$$$

  Mrv0541 06201412482D          

 43 45  0  0  1  0            999 V2000
    5.4121   -4.5252    0.0000 C   0  0  0  0  0  0  0  0  0  0  0  0
    1.8306   -2.4900    0.0000 C   0  0  0  0  0  0  0  0  0  0  0  0
    1.8419   -3.3144    0.0000 N   0  0  0  0  0  0  0  0  0  0  0  0
    1.1143   -2.0807    0.0000 C   0  0  2  0  0  0  0  0  0  0  0  0
    1.1143   -1.2507    0.0000 C   0  0  0  0  0  0  0  0  0  0  0  0
    5.4121   -3.7066    0.0000 C   0  0  0  0  0  0  0  0  0  0  0  0
    6.1284   -4.9346    0.0000 N   0  0  0  0  0  0  0  0  0  0  0  0
    4.7071   -3.2973    0.0000 C   0  0  0  0  0  0  0  0  0  0  0  0
    0.4093   -2.4900    0.0000 N   0  0  0  0  0  0  0  0  0  0  0  0
    2.5582   -3.7237    0.0000 C   0  0  2  0  0  0  0  0  0  0  0  0
    1.8306   -0.8414    0.0000 C   0  0  0  0  0  0  0  0  0  0  0  0
    3.9908   -3.7179    0.0000 C   0  0  0  0  0  0  0  0  0  0  0  0
   -0.3183   -2.0807    0.0000 C   0  0  0  0  0  0  0  0  0  0  0  0
    3.2632   -3.3086    0.0000 C   0  0  1  0  0  0  0  0  0  0  0  0
    4.7071   -4.9459    0.0000 O   0  0  0  0  0  0  0  0  0  0  0  0
    2.5469   -2.0807    0.0000 O   0  0  0  0  0  0  0  0  0  0  0  0
    2.5639   -4.5536    0.0000 C   0  0  0  0  0  0  0  0  0  0  0  0
    6.8447   -4.5252    0.0000 C   0  0  0  0  0  0  0  0  0  0  0  0
    2.5469   -1.2507    0.0000 O   0  0  0  0  0  0  0  0  0  0  0  0
   -1.0346   -2.5128    0.0000 O   0  0  0  0  0  0  0  0  0  0  0  0
    1.8306   -0.0171    0.0000 O   0  0  0  0  0  0  0  0  0  0  0  0
    2.5412    0.4036    0.0000 C   0  0  0  0  0  0  0  0  0  0  0  0
    1.8647   -4.9687    0.0000 C   0  0  0  0  0  0  0  0  0  0  0  0
    3.2461   -2.4787    0.0000 O   0  0  0  0  0  0  0  0  0  0  0  0
    2.5412    1.2222    0.0000 C   0  0  0  0  0  0  0  0  0  0  0  0
    4.7071   -2.4729    0.0000 C   0  0  0  0  0  0  0  0  0  0  0  0
    6.1284   -3.2973    0.0000 C   0  0  0  0  0  0  0  0  0  0  0  0
   -0.3183   -1.2507    0.0000 C   0  0  0  0  0  0  0  0  0  0  0  0
    7.5610   -4.1159    0.0000 C   0  0  0  0  0  0  0  0  0  0  0  0
    6.4297   -3.8089    0.0000 C   0  0  0  0  0  0  0  0  0  0  0  0
    7.2540   -5.2415    0.0000 C   0  0  0  0  0  0  0  0  0  0  0  0
    1.1427   -4.5594    0.0000 C   0  0  0  0  0  0  0  0  0  0  0  0
    1.8760   -5.7873    0.0000 C   0  0  0  0  0  0  0  0  0  0  0  0
    1.8306    1.6315    0.0000 C   0  0  0  0  0  0  0  0  0  0  0  0
    3.2461    1.6315    0.0000 C   0  0  0  0  0  0  0  0  0  0  0  0
    5.4121   -2.0523    0.0000 C   0  0  0  0  0  0  0  0  0  0  0  0
    6.1284   -2.4616    0.0000 C   0  0  0  0  0  0  0  0  0  0  0  0
    3.2461    2.4672    0.0000 C   0  0  0  0  0  0  0  0  0  0  0  0
    0.4321   -4.9857    0.0000 C   0  0  0  0  0  0  0  0  0  0  0  0
    1.1655   -6.2137    0.0000 C   0  0  0  0  0  0  0  0  0  0  0  0
    1.8306    2.4672    0.0000 C   0  0  0  0  0  0  0  0  0  0  0  0
    2.5412    2.8765    0.0000 C   0  0  0  0  0  0  0  0  0  0  0  0
    0.4492   -5.8044    0.0000 C   0  0  0  0  0  0  0  0  0  0  0  0
  2  3  1  0  0  0  0
  3 10  1  0  0  0  0
  4  2  1  0  0  0  0
  4  5  1  1  0  0  0
  6  1  1  0  0  0  0
  7  1  1  0  0  0  0
  8  6  1  0  0  0  0
  9  4  1  0  0  0  0
 10 14  1  0  0  0  0
 11  5  1  0  0  0  0
 12  8  1  0  0  0  0
 13  9  1  0  0  0  0
 14 12  1  0  0  0  0
 15  1  2  0  0  0  0
 16  2  2  0  0  0  0
 10 17  1  6  0  0  0
 18  7  1  0  0  0  0
 19 11  2  0  0  0  0
 20 13  2  0  0  0  0
 21 11  1  0  0  0  0
 22 21  1  0  0  0  0
 23 17  1  0  0  0  0
 14 24  1  6  0  0  0
 25 22  1  0  0  0  0
 26  8  2  0  0  0  0
 27  6  2  0  0  0  0
 28 13  1  0  0  0  0
 29 18  1  0  0  0  0
 30 18  1  0  0  0  0
 31 18  1  0  0  0  0
 32 23  2  0  0  0  0
 33 23  1  0  0  0  0
 34 25  1  0  0  0  0
 35 25  2  0  0  0  0
 36 37  2  0  0  0  0
 37 27  1  0  0  0  0
 38 35  1  0  0  0  0
 39 32  1  0  0  0  0
 40 33  2  0  0  0  0
 41 34  2  0  0  0  0
 42 38  2  0  0  0  0
 43 40  1  0  0  0  0
 26 36  1  0  0  0  0
 39 43  2  0  0  0  0
 41 42  1  0  0  0  0
M  END
>  <Mol Weight>
587.7058

>  <Formula>
C34H41N3O6

>  <chembl_id>
CHEMBL11193

$$$$

  Mrv0541 06201412482D          

 40 42  0  0  1  0            999 V2000
    5.6354   -1.9645    0.0000 C   0  0  0  0  0  0  0  0  0  0  0  0
    5.4981   -3.3879    0.0000 C   0  0  0  0  0  0  0  0  0  0  0  0
    5.1485   -2.6346    0.0000 C   0  0  0  0  0  0  0  0  0  0  0  0
    0.8657    0.2580    0.0000 C   0  0  0  0  0  0  0  0  0  0  0  0
    1.6149   -0.0791    0.0000 O   0  0  0  0  0  0  0  0  0  0  0  0
    6.3097   -3.4711    0.0000 N   0  0  0  0  0  0  0  0  0  0  0  0
    6.4595   -2.0394    0.0000 C   0  0  0  0  0  0  0  0  0  0  0  0
    0.9407    1.0821    0.0000 C   0  0  0  0  0  0  0  0  0  0  0  0
    7.4709   -4.2994    0.0000 C   0  0  0  0  0  0  0  0  0  0  0  0
    2.1643    0.5327    0.0000 C   0  0  0  0  0  0  0  0  0  0  0  0
    0.1540   -0.1540    0.0000 C   0  0  0  0  0  0  0  0  0  0  0  0
    6.6468   -4.2203    0.0000 C   0  0  2  0  0  0  0  0  0  0  0  0
    1.7522    1.2486    0.0000 C   0  0  0  0  0  0  0  0  0  0  0  0
    4.3369   -2.5514    0.0000 C   0  0  0  0  0  0  0  0  0  0  0  0
    5.2983   -1.2153    0.0000 C   0  0  0  0  0  0  0  0  0  0  0  0
    5.0111   -4.0580    0.0000 O   0  0  0  0  0  0  0  0  0  0  0  0
    7.8080   -5.0486    0.0000 O   0  5  0  0  0  0  0  0  0  0  0  0
    0.1540   -0.9781    0.0000 C   0  0  0  0  0  0  0  0  0  0  0  0
    7.9578   -3.6334    0.0000 O   0  0  0  0  0  0  0  0  0  0  0  0
    6.9340   -1.3735    0.0000 C   0  0  0  0  0  0  0  0  0  0  0  0
    4.4867   -1.1362    0.0000 C   0  0  0  0  0  0  0  0  0  0  0  0
   -0.5452   -1.3984    0.0000 C   0  0  0  0  0  0  0  0  0  0  0  0
    3.9997   -1.8022    0.0000 C   0  0  0  0  0  0  0  0  0  0  0  0
    6.1723   -4.8862    0.0000 C   0  0  0  0  0  0  0  0  0  0  0  0
    3.3255   -0.2997    0.0000 O   0  0  0  0  0  0  0  0  0  0  0  0
   -0.5452   -2.2225    0.0000 F   0  0  0  0  0  0  0  0  0  0  0  0
    4.8738   -5.4731    0.0000 S   0  0  0  0  0  0  0  0  0  0  0  0
   10.0680   -5.4231    0.0000 Li  0  3  0  0  0  0  0  0  0  0  0  0
    2.9884    0.4495    0.0000 C   0  0  0  0  0  0  0  0  0  0  0  0
    6.7966   -2.7886    0.0000 C   0  0  0  0  0  0  0  0  0  0  0  0
   -0.5577    0.2497    0.0000 C   0  0  0  0  0  0  0  0  0  0  0  0
   -1.2694   -0.1540    0.0000 C   0  0  0  0  0  0  0  0  0  0  0  0
    4.1496   -0.3788    0.0000 C   0  0  0  0  0  0  0  0  0  0  0  0
    5.3482   -4.8071    0.0000 C   0  0  0  0  0  0  0  0  0  0  0  0
    6.5844   -0.6243    0.0000 C   0  0  0  0  0  0  0  0  0  0  0  0
    7.7456   -1.4484    0.0000 C   0  0  0  0  0  0  0  0  0  0  0  0
   -1.2694   -0.9864    0.0000 C   0  0  0  0  0  0  0  0  0  0  0  0
    4.0497   -5.3940    0.0000 C   0  0  0  0  0  0  0  0  0  0  0  0
    7.6207   -2.8760    0.0000 C   0  0  0  0  0  0  0  0  0  0  0  0
    8.0952   -2.2017    0.0000 C   0  0  0  0  0  0  0  0  0  0  0  0
  2  3  1  0  0  0  0
  3  1  1  0  0  0  0
  4  5  1  0  0  0  0
  5 10  1  0  0  0  0
  6  2  1  0  0  0  0
  7  1  1  0  0  0  0
  8 13  1  0  0  0  0
  9 12  1  0  0  0  0
 10 29  1  0  0  0  0
 11  4  1  0  0  0  0
 12  6  1  0  0  0  0
 13 10  2  0  0  0  0
 14  3  2  0  0  0  0
 15  1  2  0  0  0  0
 16  2  2  0  0  0  0
 17  9  1  0  0  0  0
 18 11  1  0  0  0  0
 19  9  2  0  0  0  0
 20  7  1  0  0  0  0
 21 15  1  0  0  0  0
 22 18  2  0  0  0  0
 23 21  2  0  0  0  0
 12 24  1  6  0  0  0
 25 33  1  0  0  0  0
 26 22  1  0  0  0  0
 27 34  1  0  0  0  0
 29 25  1  0  0  0  0
 30  7  2  0  0  0  0
 31 11  2  0  0  0  0
 32 31  1  0  0  0  0
 33 21  1  0  0  0  0
 34 24  1  0  0  0  0
 35 20  1  0  0  0  0
 36 20  2  0  0  0  0
 37 32  2  0  0  0  0
 38 27  1  0  0  0  0
 39 30  1  0  0  0  0
 40 39  2  0  0  0  0
 14 23  1  0  0  0  0
 36 40  1  0  0  0  0
  4  8  2  0  0  0  0
 37 22  1  0  0  0  0
M  CHG  2  17  -1  28   1
M  END
>  <Mol Weight>
553.57

>  <Formula>
C31H29FLiNO5S

>  <chembl_id>
CHEMBL11195

$$$$

  Mrv0541 06201412482D          

 40 43  0  0  1  0            999 V2000
    7.2209   -1.2243    0.0000 S   0  0  0  0  0  0  0  0  0  0  0  0
    6.4880   -0.8495    0.0000 N   0  0  0  0  0  0  0  0  0  0  0  0
    7.9329   -1.6366    0.0000 C   0  0  0  0  0  0  0  0  0  0  0  0
    6.4505   -0.0250    0.0000 C   0  0  2  0  0  0  0  0  0  0  0  0
    0.0874   -1.5116    0.0000 C   0  0  0  0  0  0  0  0  0  0  0  0
    7.9247   -2.4528    0.0000 C   0  0  0  0  0  0  0  0  0  0  0  0
    8.6367   -1.2243    0.0000 C   0  0  0  0  0  0  0  0  0  0  0  0
    1.5158   -1.4742    0.0000 C   0  0  0  0  0  0  0  0  0  0  0  0
    0.7912   -1.0786    0.0000 N   0  0  0  0  0  0  0  0  0  0  0  0
    7.1459    0.4206    0.0000 C   0  0  0  0  0  0  0  0  0  0  0  0
    6.8003   -1.9364    0.0000 O   0  0  0  0  0  0  0  0  0  0  0  0
    7.6248   -0.5122    0.0000 O   0  0  0  0  0  0  0  0  0  0  0  0
    2.2112   -1.0369    0.0000 C   0  0  0  0  0  0  0  0  0  0  0  0
    2.9400   -1.4117    0.0000 C   0  0  0  0  0  0  0  0  0  0  0  0
   -0.6329   -1.1119    0.0000 N   0  0  0  0  0  0  0  0  0  0  0  0
    9.3488   -1.6283    0.0000 C   0  0  0  0  0  0  0  0  0  0  0  0
    8.6367   -2.8651    0.0000 C   0  0  0  0  0  0  0  0  0  0  0  0
    5.7217    0.3581    0.0000 C   0  0  0  0  0  0  0  0  0  0  0  0
    3.6354   -0.9744    0.0000 C   0  0  0  0  0  0  0  0  0  0  0  0
    1.5491   -2.2987    0.0000 C   0  0  0  0  0  0  0  0  0  0  0  0
    0.1041   -2.3362    0.0000 O   0  0  0  0  0  0  0  0  0  0  0  0
    7.6998    0.1249    0.0000 O   0  0  0  0  0  0  0  0  0  0  0  0
    9.3488   -2.4611    0.0000 C   0  0  0  0  0  0  0  0  0  0  0  0
    2.9775   -2.2404    0.0000 C   0  0  0  0  0  0  0  0  0  0  0  0
    2.2779   -2.6860    0.0000 C   0  0  0  0  0  0  0  0  0  0  0  0
    4.3642   -1.3534    0.0000 C   0  0  0  0  0  0  0  0  0  0  0  0
    3.5979   -0.1499    0.0000 C   0  0  0  0  0  0  0  0  0  0  0  0
    5.0263   -0.0874    0.0000 C   0  0  0  0  0  0  0  0  0  0  0  0
    7.1126    1.2451    0.0000 O   0  0  0  0  0  0  0  0  0  0  0  0
    5.0596   -0.9120    0.0000 C   0  0  0  0  0  0  0  0  0  0  0  0
    4.2892    0.2956    0.0000 C   0  0  0  0  0  0  0  0  0  0  0  0
   -1.3367   -1.5408    0.0000 C   0  0  0  0  0  0  0  0  0  0  0  0
    8.6367   -0.3998    0.0000 C   0  0  0  0  0  0  0  0  0  0  0  0
    7.2126   -2.8651    0.0000 C   0  0  0  0  0  0  0  0  0  0  0  0
    0.8495   -2.7359    0.0000 C   0  0  0  0  0  0  0  0  0  0  0  0
   10.0609   -2.8734    0.0000 C   0  0  0  0  0  0  0  0  0  0  0  0
   -2.1071   -1.2243    0.0000 C   0  0  0  0  0  0  0  0  0  0  0  0
   -1.4075   -2.3653    0.0000 C   0  0  0  0  0  0  0  0  0  0  0  0
   -2.2112   -2.5610    0.0000 C   0  0  0  0  0  0  0  0  0  0  0  0
   -2.6443   -1.8531    0.0000 C   0  0  0  0  0  0  0  0  0  0  0  0
  2  1  1  0  0  0  0
  3  1  1  0  0  0  0
  4  2  1  1  0  0  0
  5  9  1  0  0  0  0
  6  3  2  0  0  0  0
  7  3  1  0  0  0  0
  8 13  1  0  0  0  0
  9  8  1  0  0  0  0
 10  4  1  0  0  0  0
 11  1  2  0  0  0  0
 12  1  2  0  0  0  0
 13 14  2  0  0  0  0
 14 19  1  0  0  0  0
 15  5  1  0  0  0  0
 16  7  2  0  0  0  0
 17  6  1  0  0  0  0
 18  4  1  0  0  0  0
 19 27  1  0  0  0  0
 20 25  1  0  0  0  0
 21  5  2  0  0  0  0
 22 10  2  0  0  0  0
 23 16  1  0  0  0  0
 24 14  1  0  0  0  0
 25 24  2  0  0  0  0
 26 30  1  0  0  0  0
 27 31  2  0  0  0  0
 28 18  1  0  0  0  0
 29 10  1  0  0  0  0
 30 28  2  0  0  0  0
 31 28  1  0  0  0  0
 32 15  1  0  0  0  0
 33  7  1  0  0  0  0
 34  6  1  0  0  0  0
 35 20  1  0  0  0  0
 36 23  1  0  0  0  0
 37 32  1  0  0  0  0
 38 32  1  0  0  0  0
 39 38  1  0  0  0  0
 40 37  1  0  0  0  0
 23 17  2  0  0  0  0
 19 26  2  0  0  0  0
 20  8  2  0  0  0  0
 39 40  1  0  0  0  0
M  END
>  <Mol Weight>
563.708

>  <Formula>
C31H37N3O5S

>  <chembl_id>
CHEMBL10784

$$$$

  Mrv0541 06201412482D          

 39 41  0  0  1  0            999 V2000
    7.0018   -1.5912    0.0000 S   0  0  0  0  0  0  0  0  0  0  0  0
    7.7015   -2.8282    0.0000 C   0  0  0  0  0  0  0  0  0  0  0  0
    7.7140   -2.0035    0.0000 C   0  0  0  0  0  0  0  0  0  0  0  0
    6.9893   -3.2364    0.0000 C   0  0  0  0  0  0  0  0  0  0  0  0
    6.2645   -1.2163    0.0000 N   0  0  0  0  0  0  0  0  0  0  0  0
    6.2271   -0.3916    0.0000 C   0  0  2  0  0  0  0  0  0  0  0  0
    6.9268    0.0500    0.0000 C   0  0  0  0  0  0  0  0  0  0  0  0
   -0.1333   -1.8786    0.0000 C   0  0  0  0  0  0  0  0  0  0  0  0
    6.5769   -2.3034    0.0000 O   0  0  0  0  0  0  0  0  0  0  0  0
    7.4017   -0.8789    0.0000 O   0  0  0  0  0  0  0  0  0  0  0  0
    8.4138   -1.5912    0.0000 C   0  0  0  0  0  0  0  0  0  0  0  0
    8.4138   -3.2364    0.0000 C   0  0  0  0  0  0  0  0  0  0  0  0
    0.5665   -1.4495    0.0000 N   0  0  0  0  0  0  0  0  0  0  0  0
    2.7158   -1.7786    0.0000 C   0  0  0  0  0  0  0  0  0  0  0  0
    5.5023   -0.0125    0.0000 C   0  0  0  0  0  0  0  0  0  0  0  0
    3.4155   -1.3412    0.0000 C   0  0  0  0  0  0  0  0  0  0  0  0
    1.9910   -1.4037    0.0000 C   0  0  0  0  0  0  0  0  0  0  0  0
   -0.1208   -2.7033    0.0000 O   0  0  0  0  0  0  0  0  0  0  0  0
    1.2913   -1.8411    0.0000 C   0  0  0  0  0  0  0  0  0  0  0  0
    7.4766   -0.2416    0.0000 O   0  0  0  0  0  0  0  0  0  0  0  0
    6.2770   -2.8157    0.0000 F   0  0  0  0  0  0  0  0  0  0  0  0
    6.9851   -4.0611    0.0000 F   0  0  0  0  0  0  0  0  0  0  0  0
    6.2728   -3.6404    0.0000 F   0  0  0  0  0  0  0  0  0  0  0  0
   -0.8580   -1.4787    0.0000 N   0  0  0  0  0  0  0  0  0  0  0  0
    3.3780   -0.5165    0.0000 C   0  0  0  0  0  0  0  0  0  0  0  0
    4.1403   -1.7244    0.0000 C   0  0  0  0  0  0  0  0  0  0  0  0
    9.1261   -2.8240    0.0000 C   0  0  0  0  0  0  0  0  0  0  0  0
    4.8025   -0.4540    0.0000 C   0  0  0  0  0  0  0  0  0  0  0  0
    6.8893    0.8747    0.0000 O   0  0  0  0  0  0  0  0  0  0  0  0
    9.1261   -2.0035    0.0000 C   0  0  0  0  0  0  0  0  0  0  0  0
    4.8400   -1.2788    0.0000 C   0  0  0  0  0  0  0  0  0  0  0  0
    4.0653   -0.0750    0.0000 C   0  0  0  0  0  0  0  0  0  0  0  0
    9.8383   -3.2364    0.0000 Cl  0  0  0  0  0  0  0  0  0  0  0  0
    2.7533   -2.6116    0.0000 C   0  0  0  0  0  0  0  0  0  0  0  0
    2.0535   -3.0531    0.0000 C   0  0  0  0  0  0  0  0  0  0  0  0
    1.3287   -2.6658    0.0000 C   0  0  0  0  0  0  0  0  0  0  0  0
   -1.5578   -1.9118    0.0000 C   0  0  0  0  0  0  0  0  0  0  0  0
   -2.2825   -1.5162    0.0000 C   0  0  0  0  0  0  0  0  0  0  0  0
   -2.9948   -1.9493    0.0000 C   0  0  0  0  0  0  0  0  0  0  0  0
  2  3  2  0  0  0  0
  3  1  1  0  0  0  0
  4  2  1  0  0  0  0
  5  1  1  0  0  0  0
  6  5  1  1  0  0  0
  7  6  1  0  0  0  0
  8 13  1  0  0  0  0
  9  1  2  0  0  0  0
 10  1  2  0  0  0  0
 11  3  1  0  0  0  0
 12  2  1  0  0  0  0
 13 19  1  0  0  0  0
 14 16  1  0  0  0  0
 15  6  1  0  0  0  0
 16 25  1  0  0  0  0
 17 14  2  0  0  0  0
 18  8  2  0  0  0  0
 19 17  1  0  0  0  0
 20  7  2  0  0  0  0
 21  4  1  0  0  0  0
 22  4  1  0  0  0  0
 23  4  1  0  0  0  0
 24  8  1  0  0  0  0
 25 32  2  0  0  0  0
 26 31  1  0  0  0  0
 27 30  1  0  0  0  0
 28 15  1  0  0  0  0
 29  7  1  0  0  0  0
 30 11  2  0  0  0  0
 31 28  2  0  0  0  0
 32 28  1  0  0  0  0
 33 27  1  0  0  0  0
 34 14  1  0  0  0  0
 35 34  2  0  0  0  0
 36 35  1  0  0  0  0
 37 24  1  0  0  0  0
 38 37  1  0  0  0  0
 39 38  1  0  0  0  0
 12 27  2  0  0  0  0
 16 26  2  0  0  0  0
 36 19  2  0  0  0  0
M  END
>  <Mol Weight>
584.007

>  <Formula>
C26H25ClF3N3O5S

>  <chembl_id>
CHEMBL10805

$$$$

  Mrv0541 06201412482D          

 35 37  0  0  0  0            999 V2000
    4.1628   -4.3214    0.0000 S   0  0  0  0  0  0  0  0  0  0  0  0
    4.1628   -5.1481    0.0000 N   0  0  0  0  0  0  0  0  0  0  0  0
    7.0187   -1.8455    0.0000 C   0  0  0  0  0  0  0  0  0  0  0  0
    3.4446   -5.5615    0.0000 C   0  0  0  0  0  0  0  0  0  0  0  0
    2.7306   -5.1481    0.0000 C   0  0  0  0  0  0  0  0  0  0  0  0
    4.8768   -3.9081    0.0000 C   0  0  0  0  0  0  0  0  0  0  0  0
    7.0270   -2.6680    0.0000 N   0  0  0  0  0  0  0  0  0  0  0  0
    4.1628   -6.8016    0.0000 C   0  0  0  0  0  0  0  0  0  0  0  0
    4.8768   -7.2066    0.0000 C   0  0  0  0  0  0  0  0  0  0  0  0
    3.9457   -3.5115    0.0000 O   0  0  0  0  0  0  0  0  0  0  0  0
    3.3612   -4.5261    0.0000 O   0  0  0  0  0  0  0  0  0  0  0  0
    7.7327   -1.4280    0.0000 C   0  0  0  0  0  0  0  0  0  0  0  0
    6.3005   -1.4322    0.0000 O   0  0  0  0  0  0  0  0  0  0  0  0
    2.7306   -4.3214    0.0000 O   0  0  0  0  0  0  0  0  0  0  0  0
    5.5908   -4.3214    0.0000 C   0  0  0  0  0  0  0  0  0  0  0  0
    4.8768   -3.0856    0.0000 C   0  0  0  0  0  0  0  0  0  0  0  0
    8.4467   -1.8330    0.0000 C   0  0  0  0  0  0  0  0  0  0  0  0
    7.7202   -0.6055    0.0000 C   0  0  0  0  0  0  0  0  0  0  0  0
    6.3047   -3.0814    0.0000 C   0  0  0  0  0  0  0  0  0  0  0  0
    3.4446   -6.3882    0.0000 C   0  0  0  0  0  0  0  0  0  0  0  0
    2.0084   -5.5615    0.0000 O   0  0  0  0  0  0  0  0  0  0  0  0
    9.1606   -0.5929    0.0000 C   0  0  0  0  0  0  0  0  0  0  0  0
    6.3047   -3.9081    0.0000 C   0  0  0  0  0  0  0  0  0  0  0  0
    5.5908   -2.6680    0.0000 C   0  0  0  0  0  0  0  0  0  0  0  0
    8.4341   -0.1796    0.0000 C   0  0  0  0  0  0  0  0  0  0  0  0
    9.1606   -1.4196    0.0000 C   0  0  0  0  0  0  0  0  0  0  0  0
    9.8746   -0.1754    0.0000 Br  0  0  0  0  0  0  0  0  0  0  0  0
    5.5908   -7.6200    0.0000 C   0  0  0  0  0  0  0  0  0  0  0  0
    7.0145   -7.6200    0.0000 C   0  0  0  0  0  0  0  0  0  0  0  0
    6.3005   -7.2066    0.0000 O   0  0  0  0  0  0  0  0  0  0  0  0
    7.0062   -8.4467    0.0000 C   0  0  0  0  0  0  0  0  0  0  0  0
    7.7202   -7.2066    0.0000 C   0  0  0  0  0  0  0  0  0  0  0  0
    8.4341   -7.6158    0.0000 C   0  0  0  0  0  0  0  0  0  0  0  0
    7.7202   -8.8600    0.0000 C   0  0  0  0  0  0  0  0  0  0  0  0
    8.4425   -8.4467    0.0000 C   0  0  0  0  0  0  0  0  0  0  0  0
  2  1  1  0  0  0  0
  3  7  1  0  0  0  0
  4  2  1  0  0  0  0
  5  4  1  0  0  0  0
  6  1  1  0  0  0  0
  7 19  1  0  0  0  0
  8 20  1  0  0  0  0
  9  8  3  0  0  0  0
 10  1  2  0  0  0  0
 11  1  2  0  0  0  0
 12  3  1  0  0  0  0
 13  3  2  0  0  0  0
 14  5  2  0  0  0  0
 15  6  2  0  0  0  0
 16  6  1  0  0  0  0
 17 12  2  0  0  0  0
 18 12  1  0  0  0  0
 19 24  1  0  0  0  0
 20  4  1  0  0  0  0
 21  5  1  0  0  0  0
 22 25  1  0  0  0  0
 23 15  1  0  0  0  0
 24 16  2  0  0  0  0
 25 18  2  0  0  0  0
 26 17  1  0  0  0  0
 27 22  1  0  0  0  0
 28  9  1  0  0  0  0
 29 30  1  0  0  0  0
 30 28  1  0  0  0  0
 31 29  2  0  0  0  0
 32 29  1  0  0  0  0
 33 32  2  0  0  0  0
 34 31  1  0  0  0  0
 35 33  1  0  0  0  0
 23 19  2  0  0  0  0
 26 22  2  0  0  0  0
 34 35  2  0  0  0  0
M  END
>  <Mol Weight>
557.413

>  <Formula>
C25H21BrN2O6S

>  <chembl_id>
CHEMBL10908

$$$$

  Mrv0541 06201412482D          

 41 44  0  0  0  0            999 V2000
    2.1792   -0.3792    0.0000 N   0  0  0  0  0  0  0  0  0  0  0  0
    2.1792   -1.2042    0.0000 C   0  0  0  0  0  0  0  0  0  0  0  0
    2.9000   -1.6167    0.0000 N   0  0  0  0  0  0  0  0  0  0  0  0
    2.8917    0.0333    0.0000 C   0  0  0  0  0  0  0  0  0  0  0  0
    3.6125   -0.3792    0.0000 C   0  0  0  0  0  0  0  0  0  0  0  0
    3.6167   -2.8542    0.0000 C   0  0  0  0  0  0  0  0  0  0  0  0
    3.6125   -1.2042    0.0000 C   0  0  0  0  0  0  0  0  0  0  0  0
    2.9000   -2.4417    0.0000 C   0  0  0  0  0  0  0  0  0  0  0  0
    3.6167   -3.6792    0.0000 N   0  0  0  0  0  0  0  0  0  0  0  0
    1.4667   -1.6167    0.0000 S   0  0  0  0  0  0  0  0  0  0  0  0
    4.3292   -4.0917    0.0000 C   0  0  0  0  0  0  0  0  0  0  0  0
    6.4667   -2.8542    0.0000 C   0  0  0  0  0  0  0  0  0  0  0  0
    7.1792   -2.4417    0.0000 C   0  0  0  0  0  0  0  0  0  0  0  0
    4.3292   -2.4417    0.0000 O   0  0  0  0  0  0  0  0  0  0  0  0
    2.8917    0.8583    0.0000 O   0  0  0  0  0  0  0  0  0  0  0  0
    2.9042   -4.0917    0.0000 C   0  0  0  0  0  0  0  0  0  0  0  0
    5.7500   -2.4417    0.0000 C   0  0  0  0  0  0  0  0  0  0  0  0
    6.4667   -3.6792    0.0000 C   0  0  0  0  0  0  0  0  0  0  0  0
    7.8917   -2.8542    0.0000 C   0  0  0  0  0  0  0  0  0  0  0  0
    7.1792   -1.6167    0.0000 C   0  0  0  0  0  0  0  0  0  0  0  0
    5.0417   -3.6792    0.0000 C   0  0  0  0  0  0  0  0  0  0  0  0
    0.7542   -1.2042    0.0000 C   0  0  0  0  0  0  0  0  0  0  0  0
    1.4750   -4.0917    0.0000 N   0  0  0  0  0  0  0  0  0  0  0  0
    8.6042   -1.6167    0.0000 C   0  0  0  0  0  0  0  0  0  0  0  0
    2.1875   -3.6792    0.0000 C   0  0  0  0  0  0  0  0  0  0  0  0
   -1.3875   -2.4542    0.0000 C   0  0  0  0  0  0  0  0  0  0  0  0
    0.0417   -1.6250    0.0000 C   0  0  0  0  0  0  0  0  0  0  0  0
    5.7542   -4.0917    0.0000 C   0  0  0  0  0  0  0  0  0  0  0  0
    5.0417   -2.8542    0.0000 C   0  0  0  0  0  0  0  0  0  0  0  0
    7.8875   -1.2042    0.0000 C   0  0  0  0  0  0  0  0  0  0  0  0
    8.6125   -2.4417    0.0000 C   0  0  0  0  0  0  0  0  0  0  0  0
   -2.1083   -2.8667    0.0000 F   0  0  0  0  0  0  0  0  0  0  0  0
    9.3167   -1.2000    0.0000 Cl  0  0  0  0  0  0  0  0  0  0  0  0
   -1.3875   -1.6250    0.0000 C   0  0  0  0  0  0  0  0  0  0  0  0
   -0.6750   -2.8667    0.0000 C   0  0  0  0  0  0  0  0  0  0  0  0
   -0.6750   -1.2125    0.0000 C   0  0  0  0  0  0  0  0  0  0  0  0
    0.0417   -2.4542    0.0000 C   0  0  0  0  0  0  0  0  0  0  0  0
    0.7542   -3.6792    0.0000 C   0  0  0  0  0  0  0  0  0  0  0  0
    1.4750   -4.9167    0.0000 C   0  0  0  0  0  0  0  0  0  0  0  0
    0.7542   -5.3292    0.0000 C   0  0  0  0  0  0  0  0  0  0  0  0
    0.0417   -4.0917    0.0000 C   0  0  0  0  0  0  0  0  0  0  0  0
  2  1  2  0  0  0  0
  3  2  1  0  0  0  0
  4  1  1  0  0  0  0
  5  4  1  0  0  0  0
  6  8  1  0  0  0  0
  7  5  2  0  0  0  0
  8  3  1  0  0  0  0
  9  6  1  0  0  0  0
 10  2  1  0  0  0  0
 11  9  1  0  0  0  0
 12 17  1  0  0  0  0
 13 12  1  0  0  0  0
 14  6  2  0  0  0  0
 15  4  2  0  0  0  0
 16  9  1  0  0  0  0
 17 29  2  0  0  0  0
 18 28  1  0  0  0  0
 19 13  2  0  0  0  0
 20 13  1  0  0  0  0
 21 11  1  0  0  0  0
 22 10  1  0  0  0  0
 23 25  1  0  0  0  0
 24 30  1  0  0  0  0
 25 16  1  0  0  0  0
 26 35  1  0  0  0  0
 27 22  1  0  0  0  0
 28 21  2  0  0  0  0
 29 21  1  0  0  0  0
 30 20  2  0  0  0  0
 31 19  1  0  0  0  0
 32 26  1  0  0  0  0
 33 24  1  0  0  0  0
 34 36  1  0  0  0  0
 35 37  2  0  0  0  0
 36 27  2  0  0  0  0
 37 27  1  0  0  0  0
 38 23  1  0  0  0  0
 39 23  1  0  0  0  0
 40 39  1  0  0  0  0
 41 38  1  0  0  0  0
  7  3  1  0  0  0  0
 26 34  2  0  0  0  0
 12 18  2  0  0  0  0
 24 31  2  0  0  0  0
M  END
>  <Mol Weight>
593.154

>  <Formula>
C32H34ClFN4O2S

>  <chembl_id>
CHEMBL10864

$$$$

  Mrv0541 06201412482D          

 40 44  0  0  1  0            999 V2000
    4.5630   -5.7016    0.0000 S   0  0  0  0  0  0  0  0  0  0  0  0
    2.3527   -4.5253    0.0000 C   0  0  0  0  0  0  0  0  0  0  0  0
    2.7503   -4.8225    0.0000 C   0  0  1  0  0  0  0  0  0  0  0  0
    3.1564   -4.1820    0.0000 C   0  0  2  0  0  0  0  0  0  0  0  0
    2.0764   -5.2369    0.0000 C   0  0  0  0  0  0  0  0  0  0  0  0
    2.1977   -6.0783    0.0000 C   0  0  0  0  0  0  0  0  0  0  0  0
    4.0229   -5.1615    0.0000 N   0  0  0  0  0  0  0  0  0  0  0  0
    1.3061   -4.7220    0.0000 O   0  0  0  0  0  0  0  0  0  0  0  0
    1.6368   -4.1192    0.0000 C   0  0  0  0  0  0  0  0  0  0  0  0
    3.2903   -5.3625    0.0000 C   0  0  0  0  0  0  0  0  0  0  0  0
    5.1030   -6.2416    0.0000 C   0  0  0  0  0  0  0  0  0  0  0  0
    2.2899   -3.6964    0.0000 C   0  0  0  0  0  0  0  0  0  0  0  0
    5.1113   -5.1741    0.0000 O   0  0  0  0  0  0  0  0  0  0  0  0
    4.0187   -6.2416    0.0000 O   0  0  0  0  0  0  0  0  0  0  0  0
    4.3997   -0.6530    0.0000 C   0  0  0  0  0  0  0  0  0  0  0  0
    2.1601   -2.0513    0.0000 C   0  0  0  0  0  0  0  0  0  0  0  0
    3.6085   -0.8959    0.0000 O   0  0  0  0  0  0  0  0  0  0  0  0
    2.9680   -3.2318    0.0000 C   0  0  0  0  0  0  0  0  0  0  0  0
    1.5447   -3.3531    0.0000 C   0  0  0  0  0  0  0  0  0  0  0  0
    1.4736   -2.5243    0.0000 C   0  0  0  0  0  0  0  0  0  0  0  0
    2.9052   -2.4155    0.0000 C   0  0  0  0  0  0  0  0  0  0  0  0
    4.9020   -6.9825    0.0000 C   0  0  0  0  0  0  0  0  0  0  0  0
    5.8314   -6.0406    0.0000 C   0  0  0  0  0  0  0  0  0  0  0  0
    4.5630   -3.9057    0.0000 C   0  0  0  0  0  0  0  0  0  0  0  0
    2.0889   -1.2224    0.0000 C   0  0  0  0  0  0  0  0  0  0  0  0
    5.1909   -3.3657    0.0000 C   0  0  0  0  0  0  0  0  0  0  0  0
    3.7801   -3.6420    0.0000 C   0  0  0  0  0  0  0  0  0  0  0  0
    6.1788   -7.3216    0.0000 C   0  0  0  0  0  0  0  0  0  0  0  0
    4.5630    0.1590    0.0000 O   0  0  0  0  0  0  0  0  0  0  0  0
    6.3714   -6.5807    0.0000 C   0  0  0  0  0  0  0  0  0  0  0  0
    5.4420   -7.5225    0.0000 C   0  0  0  0  0  0  0  0  0  0  0  0
    6.7188   -7.8616    0.0000 Cl  0  0  0  0  0  0  0  0  0  0  0  0
    5.0151   -1.2098    0.0000 C   0  0  0  0  0  0  0  0  0  0  0  0
    5.4504   -2.5662    0.0000 C   0  0  0  0  0  0  0  0  0  0  0  0
    1.3480   -0.8791    0.0000 C   0  0  0  0  0  0  0  0  0  0  0  0
    2.7796   -0.7577    0.0000 C   0  0  0  0  0  0  0  0  0  0  0  0
    4.8350   -2.0136    0.0000 C   0  0  0  0  0  0  0  0  0  0  0  0
    2.7169    0.0586    0.0000 C   0  0  0  0  0  0  0  0  0  0  0  0
    1.2810   -0.0502    0.0000 C   0  0  0  0  0  0  0  0  0  0  0  0
    1.9633    0.4228    0.0000 C   0  0  0  0  0  0  0  0  0  0  0  0
  2  4  1  0  0  0  0
  3 10  1  6  0  0  0
  4  3  1  0  0  0  0
  5  3  1  0  0  0  0
  6  5  1  0  0  0  0
  7  1  1  0  0  0  0
  8  5  1  0  0  0  0
  9  8  1  0  0  0  0
 10  7  1  0  0  0  0
 11  1  1  0  0  0  0
 12  2  1  0  0  0  0
 13  1  2  0  0  0  0
 14  1  2  0  0  0  0
 15 33  1  0  0  0  0
 16 20  1  0  0  0  0
 17 15  2  0  0  0  0
 18 12  2  0  0  0  0
 19 12  1  0  0  0  0
 20 19  2  0  0  0  0
 21 18  1  0  0  0  0
 22 11  2  0  0  0  0
 23 11  1  0  0  0  0
 24 27  1  0  0  0  0
 25 16  1  0  0  0  0
 26 24  2  0  0  0  0
  4 27  1  1  0  0  0
 28 30  1  0  0  0  0
 29 15  1  0  0  0  0
 30 23  2  0  0  0  0
 31 22  1  0  0  0  0
 32 28  1  0  0  0  0
 33 37  1  0  0  0  0
 34 26  1  0  0  0  0
 35 25  1  0  0  0  0
 36 25  2  0  0  0  0
 37 34  1  0  0  0  0
 38 36  1  0  0  0  0
 39 35  2  0  0  0  0
 40 38  2  0  0  0  0
 28 31  2  0  0  0  0
  6  2  1  0  0  0  0
  2  9  1  0  0  0  0
 16 21  2  0  0  0  0
 40 39  1  0  0  0  0
M  END
>  <Mol Weight>
580.134

>  <Formula>
C32H34ClNO5S

>  <chembl_id>
CHEMBL10665

$$$$

  Mrv0541 06201412482D          

 42 46  0  0  0  0            999 V2000
    6.6960   -3.3091    0.0000 C   0  0  0  0  0  0  0  0  0  0  0  0
    7.4084   -2.8886    0.0000 C   0  0  0  0  0  0  0  0  0  0  0  0
    8.1208   -3.3051    0.0000 N   0  0  0  0  0  0  0  0  0  0  0  0
    6.2833   -4.0215    0.0000 C   0  0  0  0  0  0  0  0  0  0  0  0
    6.2872   -2.5927    0.0000 C   0  0  0  0  0  0  0  0  0  0  0  0
    9.5456   -4.1343    0.0000 N   0  0  0  0  0  0  0  0  0  0  0  0
    5.0453   -3.3051    0.0000 C   0  0  0  0  0  0  0  0  0  0  0  0
    5.4580   -4.0176    0.0000 C   0  0  0  0  0  0  0  0  0  0  0  0
    4.3368   -3.7178    0.0000 N   0  0  0  0  0  0  0  0  0  0  0  0
    5.4580   -2.5927    0.0000 C   0  0  0  0  0  0  0  0  0  0  0  0
   10.1179   -4.7105    0.0000 C   0  0  0  0  0  0  0  0  0  0  0  0
    3.6244   -3.3091    0.0000 C   0  0  0  0  0  0  0  0  0  0  0  0
    7.4084   -2.0672    0.0000 O   0  0  0  0  0  0  0  0  0  0  0  0
    8.8332   -2.8886    0.0000 C   0  0  0  0  0  0  0  0  0  0  0  0
    8.1208   -4.1266    0.0000 C   0  0  0  0  0  0  0  0  0  0  0  0
    8.8293   -4.5353    0.0000 C   0  0  0  0  0  0  0  0  0  0  0  0
    9.5456   -3.3091    0.0000 C   0  0  0  0  0  0  0  0  0  0  0  0
    3.6205   -2.4799    0.0000 O   0  0  0  0  0  0  0  0  0  0  0  0
   10.9198   -4.5003    0.0000 C   0  0  0  0  0  0  0  0  0  0  0  0
    9.7091   -5.4229    0.0000 C   0  0  0  0  0  0  0  0  0  0  0  0
    2.1996   -3.3091    0.0000 O   0  0  0  0  0  0  0  0  0  0  0  0
    2.9120   -3.7256    0.0000 C   0  0  0  0  0  0  0  0  0  0  0  0
    4.8740   -2.0088    0.0000 Cl  0  0  0  0  0  0  0  0  0  0  0  0
    1.4871   -3.7295    0.0000 C   0  0  0  0  0  0  0  0  0  0  0  0
    6.6843   -4.7339    0.0000 O   0  0  0  0  0  0  0  0  0  0  0  0
   -0.1713   -3.7139    0.0000 C   0  0  0  0  0  0  0  0  0  0  0  0
   -0.9927   -3.7061    0.0000 Cl  0  0  0  0  0  0  0  0  0  0  0  0
    1.0667   -4.4380    0.0000 C   0  0  0  0  0  0  0  0  0  0  0  0
    1.0784   -3.0054    0.0000 C   0  0  0  0  0  0  0  0  0  0  0  0
    0.2375   -4.4302    0.0000 C   0  0  0  0  0  0  0  0  0  0  0  0
    0.2492   -3.0015    0.0000 C   0  0  0  0  0  0  0  0  0  0  0  0
    8.8799   -5.4190    0.0000 C   0  0  0  0  0  0  0  0  0  0  0  0
   10.1140   -6.1354    0.0000 C   0  0  0  0  0  0  0  0  0  0  0  0
   11.4960   -5.0803    0.0000 C   0  0  0  0  0  0  0  0  0  0  0  0
   11.1223   -3.7061    0.0000 C   0  0  0  0  0  0  0  0  0  0  0  0
    7.5135   -4.7456    0.0000 C   0  0  0  0  0  0  0  0  0  0  0  0
    9.6974   -6.8478    0.0000 C   0  0  0  0  0  0  0  0  0  0  0  0
   12.2902   -4.8701    0.0000 C   0  0  0  0  0  0  0  0  0  0  0  0
   11.9164   -3.4920    0.0000 C   0  0  0  0  0  0  0  0  0  0  0  0
    8.4595   -6.1237    0.0000 C   0  0  0  0  0  0  0  0  0  0  0  0
    8.8682   -6.8478    0.0000 C   0  0  0  0  0  0  0  0  0  0  0  0
   12.5004   -4.0682    0.0000 C   0  0  0  0  0  0  0  0  0  0  0  0
  2  1  1  0  0  0  0
  3  2  1  0  0  0  0
  4  1  1  0  0  0  0
  5  1  2  0  0  0  0
  6 16  1  0  0  0  0
  7 10  2  0  0  0  0
  8  4  2  0  0  0  0
  9  7  1  0  0  0  0
 10  5  1  0  0  0  0
 11  6  1  0  0  0  0
 12  9  1  0  0  0  0
 13  2  2  0  0  0  0
 14  3  1  0  0  0  0
 15  3  1  0  0  0  0
 16 15  1  0  0  0  0
 17 14  1  0  0  0  0
 18 12  2  0  0  0  0
 19 11  1  0  0  0  0
 20 11  1  0  0  0  0
 21 22  1  0  0  0  0
 22 12  1  0  0  0  0
 23 10  1  0  0  0  0
 24 21  1  0  0  0  0
 25  4  1  0  0  0  0
 26 31  2  0  0  0  0
 27 26  1  0  0  0  0
 28 24  1  0  0  0  0
 29 24  2  0  0  0  0
 30 28  2  0  0  0  0
 31 29  1  0  0  0  0
 32 20  2  0  0  0  0
 33 20  1  0  0  0  0
 34 19  2  0  0  0  0
 35 19  1  0  0  0  0
 36 25  1  0  0  0  0
 37 33  2  0  0  0  0
 38 34  1  0  0  0  0
 39 35  2  0  0  0  0
 40 32  1  0  0  0  0
 41 37  1  0  0  0  0
 42 39  1  0  0  0  0
  8  7  1  0  0  0  0
  6 17  1  0  0  0  0
 30 26  1  0  0  0  0
 41 40  2  0  0  0  0
 42 38  2  0  0  0  0
M  END
>  <Mol Weight>
604.523

>  <Formula>
C33H31Cl2N3O4

>  <chembl_id>
CHEMBL10628

$$$$

  Mrv0541 06201412482D          

 40 44  0  0  0  0            999 V2000
    3.1397   -0.0506    0.0000 C   0  0  0  0  0  0  0  0  0  0  0  0
    2.3179   -0.1813    0.0000 C   0  0  0  0  0  0  0  0  0  0  0  0
    3.5190   -0.7881    0.0000 O   0  0  0  0  0  0  0  0  0  0  0  0
    2.9374   -1.3697    0.0000 C   0  0  0  0  0  0  0  0  0  0  0  0
    2.1999   -0.9988    0.0000 C   0  0  0  0  0  0  0  0  0  0  0  0
    1.4582   -1.3781    0.0000 C   0  0  0  0  0  0  0  0  0  0  0  0
    3.9320    0.1728    0.0000 C   0  0  0  0  0  0  0  0  0  0  0  0
   -0.0084   -2.1283    0.0000 C   0  0  0  0  0  0  0  0  0  0  0  0
    0.0295   -1.3022    0.0000 C   0  0  0  0  0  0  0  0  0  0  0  0
    0.2908    2.2968    0.0000 C   0  0  0  0  0  0  0  0  0  0  0  0
    0.6870   -2.5708    0.0000 C   0  0  0  0  0  0  0  0  0  0  0  0
    1.0789    2.5370    0.0000 C   0  0  0  0  0  0  0  0  0  0  0  0
    0.1054    1.4876    0.0000 C   0  0  0  0  0  0  0  0  0  0  0  0
    0.7712   -0.9272    0.0000 C   0  0  0  0  0  0  0  0  0  0  0  0
    1.4287   -2.1915    0.0000 C   0  0  0  0  0  0  0  0  0  0  0  0
    2.1030    0.6153    0.0000 C   0  0  0  0  0  0  0  0  0  0  0  0
    1.4961    1.1758    0.0000 C   0  0  0  0  0  0  0  0  0  0  0  0
    4.5178   -0.4088    0.0000 C   0  0  0  0  0  0  0  0  0  0  0  0
   -0.7965   -2.3432    0.0000 O   0  0  0  0  0  0  0  0  0  0  0  0
   -0.7417   -1.0157    0.0000 O   0  0  0  0  0  0  0  0  0  0  0  0
    5.3101   -0.1939    0.0000 C   0  0  0  0  0  0  0  0  0  0  0  0
    3.0639   -2.1788    0.0000 O   0  0  0  0  0  0  0  0  0  0  0  0
    0.7123    0.9313    0.0000 C   0  0  0  0  0  0  0  0  0  0  0  0
    1.6858    1.9807    0.0000 C   0  0  0  0  0  0  0  0  0  0  0  0
   -1.2517   -1.6562    0.0000 C   0  0  0  0  0  0  0  0  0  0  0  0
    5.5166    0.6026    0.0000 C   0  0  0  0  0  0  0  0  0  0  0  0
    4.1385    0.9609    0.0000 C   0  0  0  0  0  0  0  0  0  0  0  0
    3.3504    0.7543    0.0000 O   0  0  0  0  0  0  0  0  0  0  0  0
    4.9350    1.1842    0.0000 C   0  0  0  0  0  0  0  0  0  0  0  0
   -0.3161    2.8531    0.0000 O   0  0  0  0  0  0  0  0  0  0  0  0
    0.6490   -3.3926    0.0000 O   0  0  0  0  0  0  0  0  0  0  0  0
   -0.6827    1.2474    0.0000 O   0  0  0  0  0  0  0  0  0  0  0  0
    1.2643    3.3462    0.0000 O   0  0  0  0  0  0  0  0  0  0  0  0
    6.3131    0.8175    0.0000 O   0  0  0  0  0  0  0  0  0  0  0  0
    5.9043   -0.7755    0.0000 C   0  0  0  0  0  0  0  0  0  0  0  0
   -0.1348    3.6622    0.0000 C   0  0  0  0  0  0  0  0  0  0  0  0
    1.3402   -3.8477    0.0000 C   0  0  0  0  0  0  0  0  0  0  0  0
    2.0524    3.5864    0.0000 C   0  0  0  0  0  0  0  0  0  0  0  0
   -1.2896    1.8080    0.0000 C   0  0  0  0  0  0  0  0  0  0  0  0
    6.5281    1.6183    0.0000 C   0  0  0  0  0  0  0  0  0  0  0  0
  2  1  1  0  0  0  0
  3  1  1  0  0  0  0
  4  3  1  0  0  0  0
  5  2  2  0  0  0  0
  6  5  1  0  0  0  0
  7  1  1  0  0  0  0
  8 11  1  0  0  0  0
  9 14  1  0  0  0  0
 10 12  2  0  0  0  0
 11 15  2  0  0  0  0
 12 24  1  0  0  0  0
 13 23  2  0  0  0  0
 14  6  2  0  0  0  0
 15  6  1  0  0  0  0
 16  2  1  0  0  0  0
 17 16  1  0  0  0  0
 18  7  2  0  0  0  0
 19  8  1  0  0  0  0
 20  9  1  0  0  0  0
 21 18  1  0  0  0  0
 22  4  2  0  0  0  0
 23 17  1  0  0  0  0
 24 17  2  0  0  0  0
 25 20  1  0  0  0  0
 26 29  1  0  0  0  0
 27  7  1  0  0  0  0
 28  1  1  0  0  0  0
 29 27  2  0  0  0  0
 30 10  1  0  0  0  0
 31 11  1  0  0  0  0
 32 13  1  0  0  0  0
 33 12  1  0  0  0  0
 34 26  1  0  0  0  0
 35 21  1  0  0  0  0
 36 30  1  0  0  0  0
 37 31  1  0  0  0  0
 38 33  1  0  0  0  0
 39 32  1  0  0  0  0
 40 34  1  0  0  0  0
  4  5  1  0  0  0  0
 26 21  2  0  0  0  0
 10 13  1  0  0  0  0
  9  8  2  0  0  0  0
 19 25  1  0  0  0  0
M  END
>  <Mol Weight>
550.5532

>  <Formula>
C30H30O10

>  <chembl_id>
CHEMBL10854

$$$$

  Mrv0541 06201412482D          

 41 43  0  0  1  0            999 V2000
    3.6542   -1.9917    0.0000 C   0  0  0  0  0  0  0  0  0  0  0  0
   -1.1208    0.2333    0.0000 C   0  0  0  0  0  0  0  0  0  0  0  0
    3.5167   -3.4167    0.0000 C   0  0  0  0  0  0  0  0  0  0  0  0
    3.1667   -2.6667    0.0000 C   0  0  0  0  0  0  0  0  0  0  0  0
   -0.3708   -0.1042    0.0000 O   0  0  0  0  0  0  0  0  0  0  0  0
    4.3292   -3.5042    0.0000 N   0  0  0  0  0  0  0  0  0  0  0  0
   -1.8333   -0.1792    0.0000 C   0  0  0  0  0  0  0  0  0  0  0  0
    4.4792   -2.0667    0.0000 C   0  0  0  0  0  0  0  0  0  0  0  0
   -1.0458    1.0583    0.0000 C   0  0  0  0  0  0  0  0  0  0  0  0
    5.4917   -4.3292    0.0000 C   0  0  0  0  0  0  0  0  0  0  0  0
    0.1792    0.5083    0.0000 C   0  0  0  0  0  0  0  0  0  0  0  0
    4.6667   -4.2542    0.0000 C   0  0  2  0  0  0  0  0  0  0  0  0
   -0.2333    1.2208    0.0000 C   0  0  0  0  0  0  0  0  0  0  0  0
    2.3542   -2.5792    0.0000 C   0  0  0  0  0  0  0  0  0  0  0  0
    3.3167   -1.2417    0.0000 C   0  0  0  0  0  0  0  0  0  0  0  0
    3.0292   -4.0917    0.0000 O   0  0  0  0  0  0  0  0  0  0  0  0
    5.8292   -5.0792    0.0000 O   0  5  0  0  0  0  0  0  0  0  0  0
   -1.8333   -1.0042    0.0000 C   0  0  0  0  0  0  0  0  0  0  0  0
    5.9792   -3.6667    0.0000 O   0  0  0  0  0  0  0  0  0  0  0  0
    4.9542   -1.4042    0.0000 C   0  0  0  0  0  0  0  0  0  0  0  0
    2.5042   -1.1667    0.0000 C   0  0  0  0  0  0  0  0  0  0  0  0
    2.0167   -1.8292    0.0000 C   0  0  0  0  0  0  0  0  0  0  0  0
    4.1917   -4.9167    0.0000 C   0  0  0  0  0  0  0  0  0  0  0  0
    1.3417   -0.3292    0.0000 O   0  0  0  0  0  0  0  0  0  0  0  0
    2.8917   -5.5042    0.0000 S   0  0  0  0  0  0  0  0  0  0  0  0
   -1.1208   -1.4167    0.0000 O   0  0  0  0  0  0  0  0  0  0  0  0
    6.7667   -5.6167    0.0000 Li  0  3  0  0  0  0  0  0  0  0  0  0
    1.0042    0.4208    0.0000 C   0  0  0  0  0  0  0  0  0  0  0  0
   -2.5458    0.2208    0.0000 C   0  0  0  0  0  0  0  0  0  0  0  0
    4.8167   -2.8167    0.0000 C   0  0  0  0  0  0  0  0  0  0  0  0
    2.1667   -0.4042    0.0000 C   0  0  0  0  0  0  0  0  0  0  0  0
    3.3667   -4.8417    0.0000 C   0  0  0  0  0  0  0  0  0  0  0  0
    4.6042   -0.6542    0.0000 C   0  0  0  0  0  0  0  0  0  0  0  0
   -2.5333   -1.4292    0.0000 C   0  0  0  0  0  0  0  0  0  0  0  0
    5.7667   -1.4792    0.0000 C   0  0  0  0  0  0  0  0  0  0  0  0
    2.0667   -5.4292    0.0000 C   0  0  0  0  0  0  0  0  0  0  0  0
   -0.4083   -0.9917    0.0000 C   0  0  0  0  0  0  0  0  0  0  0  0
   -3.2583   -0.1917    0.0000 C   0  0  0  0  0  0  0  0  0  0  0  0
    5.6417   -2.9042    0.0000 C   0  0  0  0  0  0  0  0  0  0  0  0
    6.1167   -2.2292    0.0000 C   0  0  0  0  0  0  0  0  0  0  0  0
   -3.2583   -1.0167    0.0000 C   0  0  0  0  0  0  0  0  0  0  0  0
  2  5  1  0  0  0  0
  3  4  1  0  0  0  0
  4  1  1  0  0  0  0
  5 11  1  0  0  0  0
  6  3  1  0  0  0  0
  7  2  1  0  0  0  0
  8  1  1  0  0  0  0
  9 13  1  0  0  0  0
 10 12  1  0  0  0  0
 11 28  1  0  0  0  0
 12  6  1  0  0  0  0
 13 11  2  0  0  0  0
 14  4  2  0  0  0  0
 15  1  2  0  0  0  0
 16  3  2  0  0  0  0
 17 10  1  0  0  0  0
 18  7  1  0  0  0  0
 19 10  2  0  0  0  0
 20  8  1  0  0  0  0
 21 15  1  0  0  0  0
 22 21  2  0  0  0  0
 12 23  1  6  0  0  0
 24 31  1  0  0  0  0
 25 32  1  0  0  0  0
 26 18  1  0  0  0  0
 28 24  1  0  0  0  0
 29  7  2  0  0  0  0
 30  8  2  0  0  0  0
 31 21  1  0  0  0  0
 32 23  1  0  0  0  0
 33 20  1  0  0  0  0
 34 18  2  0  0  0  0
 35 20  2  0  0  0  0
 36 25  1  0  0  0  0
 37 26  1  0  0  0  0
 38 29  1  0  0  0  0
 39 30  1  0  0  0  0
 40 39  2  0  0  0  0
 41 38  2  0  0  0  0
 14 22  1  0  0  0  0
 40 35  1  0  0  0  0
  2  9  2  0  0  0  0
 41 34  1  0  0  0  0
M  CHG  2  17  -1  27   1
M  END
>  <Mol Weight>
565.606

>  <Formula>
C32H32LiNO6S

>  <chembl_id>
CHEMBL10687

$$$$

  Mrv0541 06201412482D          

 39 43  0  0  1  0            999 V2000
    5.0938   -0.8419    0.0000 C   0  0  0  0  0  0  0  0  0  0  0  0
    5.8046   -0.4231    0.0000 C   0  0  2  0  0  0  0  0  0  0  0  0
    3.6469   -1.6669    0.0000 C   0  0  2  0  0  0  0  0  0  0  0  0
    2.9446   -2.0858    0.0000 C   0  0  0  0  0  0  0  0  0  0  0  0
    5.0895   -1.6669    0.0000 C   0  0  0  0  0  0  0  0  0  0  0  0
    4.3704   -2.0858    0.0000 C   0  0  0  0  0  0  0  0  0  0  0  0
    2.9446   -2.9065    0.0000 C   0  0  0  0  0  0  0  0  0  0  0  0
    8.0849   -0.2538    0.0000 C   0  0  0  0  0  0  0  0  0  0  0  0
    6.4646   -0.0296    0.0000 O   0  0  0  0  0  0  0  0  0  0  0  0
    3.6469   -0.8377    0.0000 C   0  0  0  0  0  0  0  0  0  0  0  0
    7.2896    0.0973    0.0000 C   0  0  0  0  0  0  0  0  0  0  0  0
    4.3788   -0.4231    0.0000 C   0  0  0  0  0  0  0  0  0  0  0  0
    6.5280   -0.8504    0.0000 C   0  0  0  0  0  0  0  0  0  0  0  0
    8.2668   -1.1042    0.0000 S   0  0  0  0  0  0  0  0  0  0  0  0
    2.2381   -1.6754    0.0000 C   0  0  0  0  0  0  0  0  0  0  0  0
    6.5238   -1.6796    0.0000 C   0  0  0  0  0  0  0  0  0  0  0  0
    5.8046    0.3892    0.0000 C   0  0  0  0  0  0  0  0  0  0  0  0
    2.2381   -3.3126    0.0000 C   0  0  0  0  0  0  0  0  0  0  0  0
    8.8380    0.1861    0.0000 C   0  0  0  0  0  0  0  0  0  0  0  0
    4.3704   -2.9065    0.0000 C   0  0  0  0  0  0  0  0  0  0  0  0
    9.1383   -1.1846    0.0000 C   0  0  0  0  0  0  0  0  0  0  0  0
    1.5357   -2.0858    0.0000 C   0  0  0  0  0  0  0  0  0  0  0  0
    9.4853   -0.3808    0.0000 C   0  0  0  0  0  0  0  0  0  0  0  0
    1.5357   -2.9065    0.0000 C   0  0  0  0  0  0  0  0  0  0  0  0
    3.6469   -3.3169    0.0000 C   0  0  0  0  0  0  0  0  0  0  0  0
    7.2134    2.0519    0.0000 C   0  0  0  0  0  0  0  0  0  0  0  0
    7.3149    0.8250    0.0000 O   0  0  0  0  0  0  0  0  0  0  0  0
    3.6469   -2.4792    0.0000 Cl  0  0  0  0  0  0  0  0  0  0  0  0
    6.4984    0.8080    0.0000 C   0  0  0  0  0  0  0  0  0  0  0  0
    5.0895    0.7953    0.0000 O   0  0  0  0  0  0  0  0  0  0  0  0
    6.4899    1.6246    0.0000 O   0  0  0  0  0  0  0  0  0  0  0  0
    7.2007    2.8895    0.0000 O   0  0  0  0  0  0  0  0  0  0  0  0
    0.8293   -3.3042    0.0000 O   0  0  0  0  0  0  0  0  0  0  0  0
    2.9446   -0.4231    0.0000 Cl  0  0  0  0  0  0  0  0  0  0  0  0
    5.0895   -0.0296    0.0000 C   0  0  0  0  0  0  0  0  0  0  0  0
    2.9361   -1.2692    0.0000 C   0  0  0  0  0  0  0  0  0  0  0  0
    7.3403   -0.8504    0.0000 C   0  0  0  0  0  0  0  0  0  0  0  0
    9.5614   -1.9081    0.0000 C   0  0  0  0  0  0  0  0  0  0  0  0
    7.9453    1.6373    0.0000 C   0  0  0  0  0  0  0  0  0  0  0  0
  2  1  1  0  0  0  0
  3 10  1  0  0  0  0
  4  3  1  0  0  0  0
  5  1  1  0  0  0  0
  6  5  1  0  0  0  0
  7  4  1  0  0  0  0
  8 11  1  0  0  0  0
  2  9  1  6  0  0  0
 10 12  1  0  0  0  0
 11  9  1  0  0  0  0
 12  1  1  0  0  0  0
 13  2  1  0  0  0  0
 14  8  1  0  0  0  0
 15  4  1  0  0  0  0
 16  5  1  0  0  0  0
 17  2  1  0  0  0  0
 18  7  2  0  0  0  0
 19  8  2  0  0  0  0
 20  6  1  0  0  0  0
 21 14  1  0  0  0  0
 22 15  2  0  0  0  0
 23 19  1  0  0  0  0
 24 22  1  0  0  0  0
 25 20  1  0  0  0  0
 26 31  1  0  0  0  0
 27 11  2  0  0  0  0
  3 28  1  6  0  0  0
 29 17  1  0  0  0  0
 30 17  2  0  0  0  0
 31 29  1  0  0  0  0
 32 26  2  0  0  0  0
 33 24  2  0  0  0  0
 34 10  1  0  0  0  0
 35  1  1  0  0  0  0
 36  4  1  0  0  0  0
 13 37  1  0  0  0  0
 38 21  1  0  0  0  0
 39 26  1  0  0  0  0
 16 13  1  0  0  0  0
  6  3  1  0  0  0  0
  7 25  1  0  0  0  0
 21 23  2  0  0  0  0
 18 24  1  0  0  0  0
M  END
>  <Mol Weight>
593.558

>  <Formula>
C30H34Cl2O6S

>  <chembl_id>
CHEMBL10732

$$$$

  Mrv0541 06201412482D          

 41 43  0  0  1  0            999 V2000
    5.5667   -1.7417    0.0000 C   0  0  0  0  0  0  0  0  0  0  0  0
    5.4292   -3.1667    0.0000 C   0  0  0  0  0  0  0  0  0  0  0  0
    5.0792   -2.4167    0.0000 C   0  0  0  0  0  0  0  0  0  0  0  0
    0.7917    0.4833    0.0000 C   0  0  0  0  0  0  0  0  0  0  0  0
    1.5417    0.1458    0.0000 O   0  0  0  0  0  0  0  0  0  0  0  0
    6.2417   -3.2542    0.0000 N   0  0  0  0  0  0  0  0  0  0  0  0
    6.3917   -1.8167    0.0000 C   0  0  0  0  0  0  0  0  0  0  0  0
    0.8667    1.3083    0.0000 C   0  0  0  0  0  0  0  0  0  0  0  0
    7.4042   -4.0792    0.0000 C   0  0  0  0  0  0  0  0  0  0  0  0
    0.0792    0.0708    0.0000 C   0  0  0  0  0  0  0  0  0  0  0  0
    2.0917    0.7583    0.0000 C   0  0  0  0  0  0  0  0  0  0  0  0
   -0.6208   -1.1792    0.0000 C   0  0  0  0  0  0  0  0  0  0  0  0
    6.5792   -4.0042    0.0000 C   0  0  2  0  0  0  0  0  0  0  0  0
    0.0792   -0.7542    0.0000 C   0  0  0  0  0  0  0  0  0  0  0  0
    1.6792    1.4708    0.0000 C   0  0  0  0  0  0  0  0  0  0  0  0
    4.2667   -2.3292    0.0000 C   0  0  0  0  0  0  0  0  0  0  0  0
    5.2292   -0.9917    0.0000 C   0  0  0  0  0  0  0  0  0  0  0  0
    4.9417   -3.8417    0.0000 O   0  0  0  0  0  0  0  0  0  0  0  0
   -1.3458   -0.7667    0.0000 C   0  0  0  0  0  0  0  0  0  0  0  0
    7.7417   -4.8292    0.0000 O   0  5  0  0  0  0  0  0  0  0  0  0
    7.8917   -3.4167    0.0000 O   0  0  0  0  0  0  0  0  0  0  0  0
    6.8667   -1.1542    0.0000 C   0  0  0  0  0  0  0  0  0  0  0  0
   -0.6333    0.4708    0.0000 C   0  0  0  0  0  0  0  0  0  0  0  0
   -1.3458    0.0583    0.0000 C   0  0  0  0  0  0  0  0  0  0  0  0
   -0.6208   -2.0042    0.0000 F   0  0  0  0  0  0  0  0  0  0  0  0
    4.4167   -0.9167    0.0000 C   0  0  0  0  0  0  0  0  0  0  0  0
    3.9292   -1.5792    0.0000 C   0  0  0  0  0  0  0  0  0  0  0  0
   -2.0583   -1.1792    0.0000 Cl  0  0  0  0  0  0  0  0  0  0  0  0
    6.1042   -4.6667    0.0000 C   0  0  0  0  0  0  0  0  0  0  0  0
    3.2542   -0.0792    0.0000 O   0  0  0  0  0  0  0  0  0  0  0  0
    4.8042   -5.2542    0.0000 S   0  0  0  0  0  0  0  0  0  0  0  0
    8.7625   -5.4000    0.0000 Li  0  3  0  0  0  0  0  0  0  0  0  0
    2.9167    0.6708    0.0000 C   0  0  0  0  0  0  0  0  0  0  0  0
    6.7292   -2.5667    0.0000 C   0  0  0  0  0  0  0  0  0  0  0  0
    4.0792   -0.1542    0.0000 C   0  0  0  0  0  0  0  0  0  0  0  0
    5.2792   -4.5917    0.0000 C   0  0  0  0  0  0  0  0  0  0  0  0
    6.5167   -0.4042    0.0000 C   0  0  0  0  0  0  0  0  0  0  0  0
    7.6792   -1.2292    0.0000 C   0  0  0  0  0  0  0  0  0  0  0  0
    3.9792   -5.1792    0.0000 C   0  0  0  0  0  0  0  0  0  0  0  0
    7.5542   -2.6542    0.0000 C   0  0  0  0  0  0  0  0  0  0  0  0
    8.0292   -1.9792    0.0000 C   0  0  0  0  0  0  0  0  0  0  0  0
  2  3  1  0  0  0  0
  3  1  1  0  0  0  0
  4  5  1  0  0  0  0
  5 11  1  0  0  0  0
  6  2  1  0  0  0  0
  7  1  1  0  0  0  0
  8 15  1  0  0  0  0
  9 13  1  0  0  0  0
 10  4  1  0  0  0  0
 11 33  1  0  0  0  0
 12 14  2  0  0  0  0
 13  6  1  0  0  0  0
 14 10  1  0  0  0  0
 15 11  2  0  0  0  0
 16  3  2  0  0  0  0
 17  1  2  0  0  0  0
 18  2  2  0  0  0  0
 19 24  2  0  0  0  0
 20  9  1  0  0  0  0
 21  9  2  0  0  0  0
 22  7  1  0  0  0  0
 23 10  2  0  0  0  0
 24 23  1  0  0  0  0
 25 12  1  0  0  0  0
 26 17  1  0  0  0  0
 27 26  2  0  0  0  0
 28 19  1  0  0  0  0
 13 29  1  6  0  0  0
 30 35  1  0  0  0  0
 31 36  1  0  0  0  0
 33 30  1  0  0  0  0
 34  7  2  0  0  0  0
 35 26  1  0  0  0  0
 36 29  1  0  0  0  0
 37 22  1  0  0  0  0
 38 22  2  0  0  0  0
 39 31  1  0  0  0  0
 40 34  1  0  0  0  0
 41 40  2  0  0  0  0
 16 27  1  0  0  0  0
 41 38  1  0  0  0  0
  4  8  2  0  0  0  0
 19 12  1  0  0  0  0
M  CHG  2  20  -1  32   1
M  END
>  <Mol Weight>
588.015

>  <Formula>
C31H28ClFLiNO5S

>  <chembl_id>
CHEMBL10812

$$$$

  Mrv0541 06201412482D          

 41 43  0  0  1  0            999 V2000
    4.1842   -4.2637    0.0000 S   0  0  0  0  0  0  0  0  0  0  0  0
    9.7553   -7.2711    0.0000 C   0  0  0  0  0  0  0  0  0  0  0  0
    6.1738   -5.2358    0.0000 C   0  0  0  0  0  0  0  0  0  0  0  0
    5.4575   -4.8265    0.0000 C   0  0  1  0  0  0  0  0  0  0  0  0
    4.7470   -5.2358    0.0000 N   0  0  0  0  0  0  0  0  0  0  0  0
    6.1796   -6.0602    0.0000 N   0  0  0  0  0  0  0  0  0  0  0  0
    9.7553   -6.4524    0.0000 C   0  0  0  0  0  0  0  0  0  0  0  0
   10.4716   -7.6804    0.0000 N   0  0  0  0  0  0  0  0  0  0  0  0
    9.0448   -6.0431    0.0000 C   0  0  0  0  0  0  0  0  0  0  0  0
    6.8959   -6.4695    0.0000 C   0  0  2  0  0  0  0  0  0  0  0  0
    8.3285   -6.4638    0.0000 C   0  0  0  0  0  0  0  0  0  0  0  0
    4.7470   -3.2802    0.0000 O   0  0  0  0  0  0  0  0  0  0  0  0
    3.0585   -4.2637    0.0000 O   0  0  0  0  0  0  0  0  0  0  0  0
    7.6064   -6.0544    0.0000 C   0  0  1  0  0  0  0  0  0  0  0  0
    9.0448   -7.6917    0.0000 O   0  0  0  0  0  0  0  0  0  0  0  0
    5.4575   -3.9965    0.0000 C   0  0  0  0  0  0  0  0  0  0  0  0
    6.8788   -4.8265    0.0000 O   0  0  0  0  0  0  0  0  0  0  0  0
    6.9072   -7.2994    0.0000 C   0  0  0  0  0  0  0  0  0  0  0  0
   11.1766   -7.2711    0.0000 C   0  0  0  0  0  0  0  0  0  0  0  0
    6.1625   -3.5872    0.0000 S   0  0  0  0  0  0  0  0  0  0  0  0
    3.3826   -3.4678    0.0000 C   0  0  0  0  0  0  0  0  0  0  0  0
    6.1625   -2.7686    0.0000 C   0  0  0  0  0  0  0  0  0  0  0  0
    6.1966   -7.7145    0.0000 C   0  0  0  0  0  0  0  0  0  0  0  0
    7.5951   -5.2245    0.0000 O   0  0  0  0  0  0  0  0  0  0  0  0
    9.0448   -5.2188    0.0000 C   0  0  0  0  0  0  0  0  0  0  0  0
   10.4716   -6.0431    0.0000 C   0  0  0  0  0  0  0  0  0  0  0  0
   11.5972   -7.9874    0.0000 C   0  0  0  0  0  0  0  0  0  0  0  0
   11.9042   -6.8618    0.0000 C   0  0  0  0  0  0  0  0  0  0  0  0
   10.7673   -6.5548    0.0000 C   0  0  0  0  0  0  0  0  0  0  0  0
    5.4462   -2.3593    0.0000 C   0  0  0  0  0  0  0  0  0  0  0  0
    6.8618   -2.3422    0.0000 C   0  0  0  0  0  0  0  0  0  0  0  0
    5.4803   -7.3052    0.0000 C   0  0  0  0  0  0  0  0  0  0  0  0
    6.2137   -8.5331    0.0000 C   0  0  0  0  0  0  0  0  0  0  0  0
    9.7553   -4.7981    0.0000 C   0  0  0  0  0  0  0  0  0  0  0  0
   10.4716   -5.2074    0.0000 C   0  0  0  0  0  0  0  0  0  0  0  0
    5.4405   -1.5407    0.0000 C   0  0  0  0  0  0  0  0  0  0  0  0
    4.7753   -7.7315    0.0000 C   0  0  0  0  0  0  0  0  0  0  0  0
    5.5087   -8.9595    0.0000 C   0  0  0  0  0  0  0  0  0  0  0  0
    6.8618   -1.5236    0.0000 C   0  0  0  0  0  0  0  0  0  0  0  0
    6.1454   -1.1313    0.0000 C   0  0  0  0  0  0  0  0  0  0  0  0
    4.7811   -8.5502    0.0000 C   0  0  0  0  0  0  0  0  0  0  0  0
  2  7  1  0  0  0  0
  3  4  1  0  0  0  0
  4  5  1  0  0  0  0
  5  1  1  0  0  0  0
  6  3  1  0  0  0  0
  7  9  1  0  0  0  0
  8  2  1  0  0  0  0
  9 11  1  0  0  0  0
 10  6  1  0  0  0  0
 11 14  1  0  0  0  0
 12  1  2  0  0  0  0
 13  1  2  0  0  0  0
 14 10  1  0  0  0  0
 15  2  2  0  0  0  0
  4 16  1  1  0  0  0
 17  3  2  0  0  0  0
 10 18  1  6  0  0  0
 19  8  1  0  0  0  0
 20 16  1  0  0  0  0
 21  1  1  0  0  0  0
 22 20  1  0  0  0  0
 23 18  1  0  0  0  0
 14 24  1  6  0  0  0
 25  9  2  0  0  0  0
 26  7  2  0  0  0  0
 27 19  1  0  0  0  0
 28 19  1  0  0  0  0
 29 19  1  0  0  0  0
 30 22  2  0  0  0  0
 31 22  1  0  0  0  0
 32 23  2  0  0  0  0
 33 23  1  0  0  0  0
 34 25  1  0  0  0  0
 35 34  2  0  0  0  0
 36 30  1  0  0  0  0
 37 32  1  0  0  0  0
 38 33  2  0  0  0  0
 39 31  2  0  0  0  0
 40 39  1  0  0  0  0
 41 38  1  0  0  0  0
 36 40  2  0  0  0  0
 37 41  2  0  0  0  0
 26 35  1  0  0  0  0
M  END
>  <Mol Weight>
597.788

>  <Formula>
C31H39N3O5S2

>  <chembl_id>
CHEMBL10777

$$$$

  Mrv0541 06201412482D          

 41 43  0  0  0  0            999 V2000
    1.9365   -4.1271    0.0000 C   0  0  0  0  0  0  0  0  0  0  0  0
    1.5367   -4.8517    0.0000 C   0  0  0  0  0  0  0  0  0  0  0  0
    2.7403   -4.2895    0.0000 N   0  0  0  0  0  0  0  0  0  0  0  0
    2.8485   -5.1099    0.0000 C   0  0  0  0  0  0  0  0  0  0  0  0
    2.0989   -5.4597    0.0000 N   0  0  0  0  0  0  0  0  0  0  0  0
    7.8751   -6.1885    0.0000 C   0  0  0  0  0  0  0  0  0  0  0  0
    7.1755   -6.6258    0.0000 N   0  0  0  0  0  0  0  0  0  0  0  0
    1.5867   -3.3899    0.0000 C   0  0  0  0  0  0  0  0  0  0  0  0
    0.7163   -4.9599    0.0000 C   0  0  0  0  0  0  0  0  0  0  0  0
    7.8501   -5.3722    0.0000 N   0  0  0  0  0  0  0  0  0  0  0  0
    8.6081   -6.5841    0.0000 O   0  0  0  0  0  0  0  0  0  0  0  0
    3.5732   -5.5014    0.0000 S   0  0  0  0  0  0  0  0  0  0  0  0
    0.7663   -3.3233    0.0000 C   0  0  0  0  0  0  0  0  0  0  0  0
    2.0614   -2.7153    0.0000 C   0  0  0  0  0  0  0  0  0  0  0  0
    0.2249   -4.2978    0.0000 C   0  0  0  0  0  0  0  0  0  0  0  0
    0.4040   -5.7137    0.0000 C   0  0  0  0  0  0  0  0  0  0  0  0
   -0.9120   -5.1598    0.0000 C   0  0  0  0  0  0  0  0  0  0  0  0
    0.8912   -1.8907    0.0000 C   0  0  0  0  0  0  0  0  0  0  0  0
   -0.5955   -4.4019    0.0000 C   0  0  0  0  0  0  0  0  0  0  0  0
    0.4165   -2.5779    0.0000 C   0  0  0  0  0  0  0  0  0  0  0  0
   -0.4123   -5.8220    0.0000 C   0  0  0  0  0  0  0  0  0  0  0  0
    1.7116   -1.9657    0.0000 C   0  0  0  0  0  0  0  0  0  0  0  0
    7.2005   -7.4504    0.0000 C   0  0  0  0  0  0  0  0  0  0  0  0
    0.5414   -1.1494    0.0000 O   0  0  0  0  0  0  0  0  0  0  0  0
   -1.7324   -5.2640    0.0000 O   0  0  0  0  0  0  0  0  0  0  0  0
    7.1255   -4.9766    0.0000 C   0  0  0  0  0  0  0  0  0  0  0  0
    8.5498   -4.9350    0.0000 C   0  0  0  0  0  0  0  0  0  0  0  0
    4.2728   -5.0724    0.0000 C   0  0  0  0  0  0  0  0  0  0  0  0
   -0.2832   -1.0786    0.0000 C   0  0  0  0  0  0  0  0  0  0  0  0
   -2.2321   -4.6018    0.0000 C   0  0  0  0  0  0  0  0  0  0  0  0
    6.4259   -5.4139    0.0000 C   0  0  0  0  0  0  0  0  0  0  0  0
    9.2827   -5.3264    0.0000 C   0  0  0  0  0  0  0  0  0  0  0  0
    6.5008   -7.8876    0.0000 C   0  0  0  0  0  0  0  0  0  0  0  0
    7.9334   -7.8377    0.0000 C   0  0  0  0  0  0  0  0  0  0  0  0
    5.0016   -5.4597    0.0000 C   0  0  0  0  0  0  0  0  0  0  0  0
   12.1354   -5.2348    0.0000 C   0  0  0  0  0  0  0  0  0  0  0  0
   11.4108   -4.8475    0.0000 C   0  0  0  0  0  0  0  0  0  0  0  0
   10.7112   -5.2765    0.0000 C   0  0  0  0  0  0  0  0  0  0  0  0
    5.7013   -5.0266    0.0000 C   0  0  0  0  0  0  0  0  0  0  0  0
    9.9823   -4.8892    0.0000 C   0  0  0  0  0  0  0  0  0  0  0  0
   12.8351   -4.8017    0.0000 C   0  0  0  0  0  0  0  0  0  0  0  0
  2  1  2  0  0  0  0
  3  1  1  0  0  0  0
  4  3  2  0  0  0  0
  5  2  1  0  0  0  0
  6 10  1  0  0  0  0
  7  6  1  0  0  0  0
  8  1  1  0  0  0  0
  9  2  1  0  0  0  0
 10 26  1  0  0  0  0
 11  6  2  0  0  0  0
 12  4  1  0  0  0  0
 13  8  1  0  0  0  0
 14  8  2  0  0  0  0
 15  9  2  0  0  0  0
 16  9  1  0  0  0  0
 17 21  1  0  0  0  0
 18 22  2  0  0  0  0
 19 15  1  0  0  0  0
 20 13  2  0  0  0  0
 21 16  2  0  0  0  0
 22 14  1  0  0  0  0
 23  7  1  0  0  0  0
 24 18  1  0  0  0  0
 25 17  1  0  0  0  0
 26 31  1  0  0  0  0
 27 10  1  0  0  0  0
 28 12  1  0  0  0  0
 29 24  1  0  0  0  0
 30 25  1  0  0  0  0
 31 39  1  0  0  0  0
 32 27  1  0  0  0  0
 33 23  1  0  0  0  0
 34 23  1  0  0  0  0
 35 28  1  0  0  0  0
 36 37  1  0  0  0  0
 37 38  1  0  0  0  0
 38 40  1  0  0  0  0
 39 35  1  0  0  0  0
 40 32  1  0  0  0  0
 41 36  1  0  0  0  0
  4  5  1  0  0  0  0
 18 20  1  0  0  0  0
 17 19  2  0  0  0  0
M  END
>  <Mol Weight>
580.824

>  <Formula>
C33H48N4O3S

>  <chembl_id>
CHEMBL11232

$$$$

  Mrv0541 06201412482D          

 40 44  0  0  0  0            999 V2000
    8.0026   -0.9098    0.0000 S   0  0  0  0  0  0  0  0  0  0  0  0
   -0.2106   -1.7606    0.0000 C   0  0  0  0  0  0  0  0  0  0  0  0
   -0.8802   -2.1607    0.0000 N   0  0  0  0  0  0  0  0  0  0  0  0
   -0.2106   -0.9772    0.0000 C   0  0  0  0  0  0  0  0  0  0  0  0
    0.4718   -2.1397    0.0000 C   0  0  0  0  0  0  0  0  0  0  0  0
   -1.5668   -0.9772    0.0000 C   0  0  0  0  0  0  0  0  0  0  0  0
   -1.5752   -1.7606    0.0000 C   0  0  0  0  0  0  0  0  0  0  0  0
    7.7835   -0.1053    0.0000 N   0  0  0  0  0  0  0  0  0  0  0  0
    7.2781   -1.3183    0.0000 O   0  0  0  0  0  0  0  0  0  0  0  0
    8.7228   -0.4844    0.0000 O   0  0  0  0  0  0  0  0  0  0  0  0
    8.4153   -1.6300    0.0000 C   0  0  0  0  0  0  0  0  0  0  0  0
    1.1414   -1.7437    0.0000 C   0  0  0  0  0  0  0  0  0  0  0  0
    0.4718   -2.9231    0.0000 C   0  0  0  0  0  0  0  0  0  0  0  0
    1.1541   -3.3105    0.0000 C   0  0  0  0  0  0  0  0  0  0  0  0
    1.8238   -2.1270    0.0000 C   0  0  0  0  0  0  0  0  0  0  0  0
    6.9791    0.1095    0.0000 C   0  0  0  0  0  0  0  0  0  0  0  0
    1.8364   -2.9104    0.0000 C   0  0  0  0  0  0  0  0  0  0  0  0
    0.3791   -0.3833    0.0000 C   0  0  0  0  0  0  0  0  0  0  0  0
    1.7732   -0.0042    0.0000 N   0  0  0  0  0  0  0  0  0  0  0  0
    5.3701    0.5391    0.0000 C   0  0  0  0  0  0  0  0  0  0  0  0
    6.7516    0.9182    0.0000 C   0  0  0  0  0  0  0  0  0  0  0  0
    6.3852   -0.4844    0.0000 C   0  0  0  0  0  0  0  0  0  0  0  0
    5.9514    1.1246    0.0000 C   0  0  0  0  0  0  0  0  0  0  0  0
    5.5849   -0.2696    0.0000 C   0  0  0  0  0  0  0  0  0  0  0  0
   -2.2491   -0.5855    0.0000 C   0  0  0  0  0  0  0  0  0  0  0  0
   -2.2449   -2.1523    0.0000 C   0  0  0  0  0  0  0  0  0  0  0  0
    7.9899   -2.3418    0.0000 C   0  0  0  0  0  0  0  0  0  0  0  0
    9.2366   -1.6300    0.0000 C   0  0  0  0  0  0  0  0  0  0  0  0
    1.1877   -0.5981    0.0000 C   0  0  0  0  0  0  0  0  0  0  0  0
    2.5018   -1.7227    0.0000 C   0  0  0  0  0  0  0  0  0  0  0  0
    1.1667   -4.0939    0.0000 C   0  0  0  0  0  0  0  0  0  0  0  0
    2.5819   -0.2191    0.0000 C   0  0  0  0  0  0  0  0  0  0  0  0
    4.5614    0.7539    0.0000 C   0  0  0  0  0  0  0  0  0  0  0  0
    3.1631    0.3748    0.0000 C   0  0  0  0  0  0  0  0  0  0  0  0
    3.9718    0.1600    0.0000 C   0  0  0  0  0  0  0  0  0  0  0  0
   -2.9272   -0.9772    0.0000 C   0  0  0  0  0  0  0  0  0  0  0  0
   -2.9272   -1.7563    0.0000 C   0  0  0  0  0  0  0  0  0  0  0  0
    9.6452   -2.3418    0.0000 C   0  0  0  0  0  0  0  0  0  0  0  0
    8.4027   -3.0621    0.0000 C   0  0  0  0  0  0  0  0  0  0  0  0
    9.2282   -3.0621    0.0000 C   0  0  0  0  0  0  0  0  0  0  0  0
  2  4  2  0  0  0  0
  3  2  1  0  0  0  0
  4 18  1  0  0  0  0
  5  2  1  0  0  0  0
  6  4  1  0  0  0  0
  7  6  2  0  0  0  0
  8  1  1  0  0  0  0
  9  1  2  0  0  0  0
 10  1  2  0  0  0  0
 11  1  1  0  0  0  0
 12  5  1  0  0  0  0
 13  5  2  0  0  0  0
 14 13  1  0  0  0  0
 15 12  2  0  0  0  0
 16  8  1  0  0  0  0
 17 14  2  0  0  0  0
 18 29  1  0  0  0  0
 19 32  1  0  0  0  0
 20 24  2  0  0  0  0
 21 16  1  0  0  0  0
 22 16  2  0  0  0  0
 23 21  2  0  0  0  0
 24 22  1  0  0  0  0
 25  6  1  0  0  0  0
 26  7  1  0  0  0  0
 27 11  2  0  0  0  0
 28 11  1  0  0  0  0
 29 19  1  0  0  0  0
 30 15  1  0  0  0  0
 31 14  1  0  0  0  0
 32 34  1  0  0  0  0
 33 20  1  0  0  0  0
 34 35  1  0  0  0  0
 35 33  1  0  0  0  0
 36 25  2  0  0  0  0
 37 36  1  0  0  0  0
 38 28  2  0  0  0  0
 39 27  1  0  0  0  0
 40 38  1  0  0  0  0
 39 40  2  0  0  0  0
 23 20  1  0  0  0  0
  7  3  1  0  0  0  0
 37 26  2  0  0  0  0
 17 15  1  0  0  0  0
M  END
>  <Mol Weight>
551.741

>  <Formula>
C34H37N3O2S

>  <chembl_id>
CHEMBL11074

$$$$

  Mrv0541 06201412482D          

 41 43  0  0  1  0            999 V2000
    5.5566   -1.2487    0.0000 C   0  0  0  0  0  0  0  0  0  0  0  0
    5.4109   -2.6721    0.0000 C   0  0  0  0  0  0  0  0  0  0  0  0
    5.0696   -1.9147    0.0000 C   0  0  0  0  0  0  0  0  0  0  0  0
    0.7784    0.9740    0.0000 C   0  0  0  0  0  0  0  0  0  0  0  0
    1.5359    0.6368    0.0000 O   0  0  0  0  0  0  0  0  0  0  0  0
    6.2309   -2.7513    0.0000 N   0  0  0  0  0  0  0  0  0  0  0  0
    6.3724   -1.3236    0.0000 C   0  0  0  0  0  0  0  0  0  0  0  0
    0.8616    1.7981    0.0000 C   0  0  0  0  0  0  0  0  0  0  0  0
    7.3921   -3.5837    0.0000 C   0  0  0  0  0  0  0  0  0  0  0  0
    2.0853    1.2487    0.0000 C   0  0  0  0  0  0  0  0  0  0  0  0
    6.5680   -3.5005    0.0000 C   0  0  2  0  0  0  0  0  0  0  0  0
    1.6732    1.9687    0.0000 C   0  0  0  0  0  0  0  0  0  0  0  0
    4.2497   -1.8355    0.0000 C   0  0  0  0  0  0  0  0  0  0  0  0
    0.0749    0.5619    0.0000 C   0  0  0  0  0  0  0  0  0  0  0  0
    5.2194   -0.4995    0.0000 C   0  0  0  0  0  0  0  0  0  0  0  0
    4.9322   -3.3381    0.0000 O   0  0  0  0  0  0  0  0  0  0  0  0
    7.7293   -4.3329    0.0000 O   0  5  0  0  0  0  0  0  0  0  0  0
    7.8708   -2.9136    0.0000 O   0  0  0  0  0  0  0  0  0  0  0  0
    6.8552   -0.6535    0.0000 C   0  0  0  0  0  0  0  0  0  0  0  0
    0.0749   -0.2622    0.0000 C   0  0  0  0  0  0  0  0  0  0  0  0
   -0.6451    0.9698    0.0000 C   0  0  0  0  0  0  0  0  0  0  0  0
    4.3995   -0.4163    0.0000 C   0  0  0  0  0  0  0  0  0  0  0  0
    3.9125   -1.0863    0.0000 C   0  0  0  0  0  0  0  0  0  0  0  0
   -1.3486   -0.2664    0.0000 C   0  0  0  0  0  0  0  0  0  0  0  0
    6.0935   -4.1706    0.0000 C   0  0  0  0  0  0  0  0  0  0  0  0
   -2.0603   -0.6868    0.0000 S   0  0  0  0  0  0  0  0  0  0  0  0
    3.2465    0.4204    0.0000 O   0  0  0  0  0  0  0  0  0  0  0  0
   -1.3569    0.5577    0.0000 C   0  0  0  0  0  0  0  0  0  0  0  0
   -0.6326   -0.6785    0.0000 C   0  0  0  0  0  0  0  0  0  0  0  0
    4.7866   -4.7574    0.0000 S   0  0  0  0  0  0  0  0  0  0  0  0
    8.5326   -4.9864    0.0000 Li  0  3  0  0  0  0  0  0  0  0  0  0
    2.9011    1.1696    0.0000 C   0  0  0  0  0  0  0  0  0  0  0  0
    6.7178   -2.0728    0.0000 C   0  0  0  0  0  0  0  0  0  0  0  0
    4.0624    0.3371    0.0000 C   0  0  0  0  0  0  0  0  0  0  0  0
    5.2694   -4.0873    0.0000 C   0  0  0  0  0  0  0  0  0  0  0  0
    6.5056    0.0957    0.0000 C   0  0  0  0  0  0  0  0  0  0  0  0
    7.6668   -0.7284    0.0000 C   0  0  0  0  0  0  0  0  0  0  0  0
   -2.0603   -1.5109    0.0000 C   0  0  0  0  0  0  0  0  0  0  0  0
    3.9708   -4.6742    0.0000 C   0  0  0  0  0  0  0  0  0  0  0  0
    7.5337   -2.1602    0.0000 C   0  0  0  0  0  0  0  0  0  0  0  0
    8.0164   -1.4859    0.0000 C   0  0  0  0  0  0  0  0  0  0  0  0
  2  3  1  0  0  0  0
  3  1  1  0  0  0  0
  4  5  1  0  0  0  0
  5 10  1  0  0  0  0
  6  2  1  0  0  0  0
  7  1  1  0  0  0  0
  8 12  1  0  0  0  0
  9 11  1  0  0  0  0
 10 32  1  0  0  0  0
 11  6  1  0  0  0  0
 12 10  2  0  0  0  0
 13  3  2  0  0  0  0
 14  4  1  0  0  0  0
 15  1  2  0  0  0  0
 16  2  2  0  0  0  0
 17  9  1  0  0  0  0
 18  9  2  0  0  0  0
 19  7  1  0  0  0  0
 20 14  1  0  0  0  0
 21 14  2  0  0  0  0
 22 15  1  0  0  0  0
 23 22  2  0  0  0  0
 24 28  2  0  0  0  0
 11 25  1  6  0  0  0
 26 24  1  0  0  0  0
 27 34  1  0  0  0  0
 28 21  1  0  0  0  0
 29 20  2  0  0  0  0
 30 35  1  0  0  0  0
 32 27  1  0  0  0  0
 33  7  2  0  0  0  0
 34 22  1  0  0  0  0
 35 25  1  0  0  0  0
 36 19  1  0  0  0  0
 37 19  2  0  0  0  0
 38 26  1  0  0  0  0
 39 30  1  0  0  0  0
 40 33  1  0  0  0  0
 41 40  2  0  0  0  0
 13 23  1  0  0  0  0
 41 37  1  0  0  0  0
  4  8  2  0  0  0  0
 29 24  1  0  0  0  0
M  CHG  2  17  -1  31   1
M  END
>  <Mol Weight>
581.671

>  <Formula>
C32H32LiNO5S2

>  <chembl_id>
CHEMBL11003

$$$$

  Mrv0541 06201412482D          

 45 52  0  0  0  0            999 V2000
    5.2886   -1.4534    0.0000 N   0  0  0  0  0  0  0  0  0  0  0  0
   -1.7573   -0.2041    0.0000 N   0  0  0  0  0  0  0  0  0  0  0  0
   -1.9072   -1.0161    0.0000 C   0  0  0  0  0  0  0  0  0  0  0  0
    5.4136   -0.6413    0.0000 C   0  0  0  0  0  0  0  0  0  0  0  0
    5.9383   -1.9656    0.0000 C   0  0  0  0  0  0  0  0  0  0  0  0
   -2.3819    0.3248    0.0000 C   0  0  0  0  0  0  0  0  0  0  0  0
   -2.6817   -1.2992    0.0000 C   0  0  0  0  0  0  0  0  0  0  0  0
    6.1756   -0.3415    0.0000 C   0  0  0  0  0  0  0  0  0  0  0  0
    6.8252   -0.8537    0.0000 C   0  0  0  0  0  0  0  0  0  0  0  0
   -3.3064   -0.7663    0.0000 C   0  0  0  0  0  0  0  0  0  0  0  0
   -3.1607    0.0458    0.0000 C   0  0  0  0  0  0  0  0  0  0  0  0
    6.7003   -1.6657    0.0000 C   0  0  0  0  0  0  0  0  0  0  0  0
    7.5873   -0.5497    0.0000 C   0  0  0  0  0  0  0  0  0  0  0  0
   -4.0934   -1.0411    0.0000 C   0  0  0  0  0  0  0  0  0  0  0  0
    7.7122    0.2623    0.0000 C   0  0  0  0  0  0  0  0  0  0  0  0
   -4.2433   -1.8531    0.0000 C   0  0  0  0  0  0  0  0  0  0  0  0
   -2.8234   -2.1113    0.0000 C   0  0  0  0  0  0  0  0  0  0  0  0
    6.2964    0.4705    0.0000 C   0  0  0  0  0  0  0  0  0  0  0  0
   -3.6062   -2.3903    0.0000 C   0  0  0  0  0  0  0  0  0  0  0  0
    7.0626    0.7828    0.0000 C   0  0  0  0  0  0  0  0  0  0  0  0
    7.3582    1.5574    0.0000 O   0  0  0  0  0  0  0  0  0  0  0  0
   -3.9227   -3.1607    0.0000 O   0  0  0  0  0  0  0  0  0  0  0  0
    4.7722   -0.1291    0.0000 O   0  0  0  0  0  0  0  0  0  0  0  0
    5.8133   -2.7859    0.0000 O   0  0  0  0  0  0  0  0  0  0  0  0
   -2.2320    1.1451    0.0000 O   0  0  0  0  0  0  0  0  0  0  0  0
   -1.2576   -1.5533    0.0000 O   0  0  0  0  0  0  0  0  0  0  0  0
   -4.7431   -3.0899    0.0000 C   0  0  0  0  0  0  0  0  0  0  0  0
    8.1870    1.5199    0.0000 C   0  0  0  0  0  0  0  0  0  0  0  0
    8.3993    0.7204    0.0000 C   0  0  0  0  0  0  0  0  0  0  0  0
   -4.9346   -2.2904    0.0000 C   0  0  0  0  0  0  0  0  0  0  0  0
   -0.9827    0.0708    0.0000 C   0  0  0  0  0  0  0  0  0  0  0  0
    4.6515   -0.9287    0.0000 C   0  0  0  0  0  0  0  0  0  0  0  0
   -3.7936    0.5747    0.0000 C   0  0  0  0  0  0  0  0  0  0  0  0
    7.3499   -2.1779    0.0000 C   0  0  0  0  0  0  0  0  0  0  0  0
   -4.7181   -0.5164    0.0000 C   0  0  0  0  0  0  0  0  0  0  0  0
    8.2369   -1.0619    0.0000 C   0  0  0  0  0  0  0  0  0  0  0  0
    3.2481   -0.6788    0.0000 N   0  0  0  0  0  0  0  0  0  0  0  0
    0.4290   -0.1749    0.0000 N   0  0  0  0  0  0  0  0  0  0  0  0
    1.8406   -0.4290    0.0000 C   0  0  0  0  0  0  0  0  0  0  0  0
   -4.5806    0.2956    0.0000 C   0  0  0  0  0  0  0  0  0  0  0  0
    8.1203   -1.8781    0.0000 C   0  0  0  0  0  0  0  0  0  0  0  0
    1.0536   -0.7038    0.0000 C   0  0  0  0  0  0  0  0  0  0  0  0
    2.4653   -0.9536    0.0000 C   0  0  0  0  0  0  0  0  0  0  0  0
    3.8770   -1.2118    0.0000 C   0  0  0  0  0  0  0  0  0  0  0  0
   -0.3498   -0.4622    0.0000 C   0  0  0  0  0  0  0  0  0  0  0  0
  2 31  1  0  0  0  0
  3  2  1  0  0  0  0
  4  1  1  0  0  0  0
  5  1  1  0  0  0  0
  6  2  1  0  0  0  0
  7  3  1  0  0  0  0
  8  4  1  0  0  0  0
  9 12  2  0  0  0  0
 10 11  2  0  0  0  0
 11  6  1  0  0  0  0
 12  5  1  0  0  0  0
 13  9  1  0  0  0  0
 14 10  1  0  0  0  0
 15 13  1  0  0  0  0
 16 14  1  0  0  0  0
 17  7  2  0  0  0  0
 18  8  2  0  0  0  0
 19 17  1  0  0  0  0
 20 18  1  0  0  0  0
 21 20  1  0  0  0  0
 22 19  1  0  0  0  0
 23  4  2  0  0  0  0
 24  5  2  0  0  0  0
 25  6  2  0  0  0  0
 26  3  2  0  0  0  0
 27 22  1  0  0  0  0
 28 21  1  0  0  0  0
 29 15  1  0  0  0  0
 30 16  1  0  0  0  0
 31 45  1  0  0  0  0
 32  1  1  0  0  0  0
 33 11  1  0  0  0  0
 34 12  1  0  0  0  0
 35 40  1  0  0  0  0
 36 41  1  0  0  0  0
 37 44  1  0  0  0  0
 38 42  1  0  0  0  0
 39 43  1  0  0  0  0
 40 33  2  0  0  0  0
 41 34  2  0  0  0  0
 42 39  1  0  0  0  0
 43 37  1  0  0  0  0
 44 32  1  0  0  0  0
 45 38  1  0  0  0  0
  8  9  1  0  0  0  0
 20 15  2  0  0  0  0
 36 13  2  0  0  0  0
 29 28  2  0  0  0  0
  7 10  1  0  0  0  0
 19 16  2  0  0  0  0
 35 14  2  0  0  0  0
 30 27  2  0  0  0  0
M  END
>  <Mol Weight>
600.62

>  <Formula>
C35H28N4O6

>  <chembl_id>
CHEMBL11025

$$$$

  Mrv0541 06201412482D          

 40 42  0  0  1  0            999 V2000
    2.9029   -2.3364    0.0000 C   0  0  0  0  0  0  0  0  0  0  0  0
   -1.8699   -0.1124    0.0000 C   0  0  0  0  0  0  0  0  0  0  0  0
    2.7654   -3.7608    0.0000 C   0  0  0  0  0  0  0  0  0  0  0  0
    2.4156   -3.0028    0.0000 C   0  0  0  0  0  0  0  0  0  0  0  0
   -1.1203   -0.4498    0.0000 O   0  0  0  0  0  0  0  0  0  0  0  0
    3.5776   -3.8399    0.0000 N   0  0  0  0  0  0  0  0  0  0  0  0
   -2.5821   -0.5248    0.0000 C   0  0  0  0  0  0  0  0  0  0  0  0
    3.7275   -2.4114    0.0000 C   0  0  0  0  0  0  0  0  0  0  0  0
   -1.7950    0.7122    0.0000 C   0  0  0  0  0  0  0  0  0  0  0  0
    4.7395   -4.6729    0.0000 C   0  0  0  0  0  0  0  0  0  0  0  0
   -0.5705    0.1624    0.0000 C   0  0  0  0  0  0  0  0  0  0  0  0
    3.9149   -4.5896    0.0000 C   0  0  2  0  0  0  0  0  0  0  0  0
   -0.9828    0.8829    0.0000 C   0  0  0  0  0  0  0  0  0  0  0  0
    1.6035   -2.9237    0.0000 C   0  0  0  0  0  0  0  0  0  0  0  0
    2.5655   -1.5868    0.0000 C   0  0  0  0  0  0  0  0  0  0  0  0
    2.2782   -4.4272    0.0000 O   0  0  0  0  0  0  0  0  0  0  0  0
   -2.5821   -1.3494    0.0000 C   0  0  0  0  0  0  0  0  0  0  0  0
    5.0769   -5.4225    0.0000 O   0  5  0  0  0  0  0  0  0  0  0  0
    5.2268   -4.0024    0.0000 O   0  0  0  0  0  0  0  0  0  0  0  0
    4.2023   -1.7409    0.0000 C   0  0  0  0  0  0  0  0  0  0  0  0
    1.7534   -1.5035    0.0000 C   0  0  0  0  0  0  0  0  0  0  0  0
    1.2661   -2.1740    0.0000 C   0  0  0  0  0  0  0  0  0  0  0  0
   -1.8699   -1.7617    0.0000 F   0  0  0  0  0  0  0  0  0  0  0  0
    3.4401   -5.2601    0.0000 C   0  0  0  0  0  0  0  0  0  0  0  0
    0.5914   -0.6664    0.0000 O   0  0  0  0  0  0  0  0  0  0  0  0
    2.1407   -5.8473    0.0000 S   0  0  0  0  0  0  0  0  0  0  0  0
    6.5137   -5.6766    0.0000 Li  0  3  0  0  0  0  0  0  0  0  0  0
    0.2541    0.0833    0.0000 C   0  0  0  0  0  0  0  0  0  0  0  0
   -3.2943   -0.1166    0.0000 C   0  0  0  0  0  0  0  0  0  0  0  0
    4.0648   -3.1610    0.0000 C   0  0  0  0  0  0  0  0  0  0  0  0
    1.4160   -0.7497    0.0000 C   0  0  0  0  0  0  0  0  0  0  0  0
    2.6155   -5.1768    0.0000 C   0  0  0  0  0  0  0  0  0  0  0  0
    3.8524   -0.9912    0.0000 C   0  0  0  0  0  0  0  0  0  0  0  0
   -3.2818   -1.7659    0.0000 C   0  0  0  0  0  0  0  0  0  0  0  0
    5.0144   -1.8159    0.0000 C   0  0  0  0  0  0  0  0  0  0  0  0
    1.3161   -5.7641    0.0000 C   0  0  0  0  0  0  0  0  0  0  0  0
   -4.0065   -0.5290    0.0000 C   0  0  0  0  0  0  0  0  0  0  0  0
    4.8895   -3.2485    0.0000 C   0  0  0  0  0  0  0  0  0  0  0  0
   -4.0065   -1.3536    0.0000 C   0  0  0  0  0  0  0  0  0  0  0  0
    5.3642   -2.5738    0.0000 C   0  0  0  0  0  0  0  0  0  0  0  0
  2  5  1  0  0  0  0
  3  4  1  0  0  0  0
  4  1  1  0  0  0  0
  5 11  1  0  0  0  0
  6  3  1  0  0  0  0
  7  2  1  0  0  0  0
  8  1  1  0  0  0  0
  9 13  1  0  0  0  0
 10 12  1  0  0  0  0
 11 28  1  0  0  0  0
 12  6  1  0  0  0  0
 13 11  2  0  0  0  0
 14  4  2  0  0  0  0
 15  1  2  0  0  0  0
 16  3  2  0  0  0  0
 17  7  1  0  0  0  0
 18 10  1  0  0  0  0
 19 10  2  0  0  0  0
 20  8  1  0  0  0  0
 21 15  1  0  0  0  0
 22 21  2  0  0  0  0
 23 17  1  0  0  0  0
 12 24  1  6  0  0  0
 25 31  1  0  0  0  0
 26 32  1  0  0  0  0
 28 25  1  0  0  0  0
 29  7  2  0  0  0  0
 30  8  2  0  0  0  0
 31 21  1  0  0  0  0
 32 24  1  0  0  0  0
 33 20  1  0  0  0  0
 34 17  2  0  0  0  0
 35 20  2  0  0  0  0
 36 26  1  0  0  0  0
 37 29  1  0  0  0  0
 38 30  1  0  0  0  0
 39 37  2  0  0  0  0
 40 38  2  0  0  0  0
 14 22  1  0  0  0  0
 35 40  1  0  0  0  0
  2  9  2  0  0  0  0
 39 34  1  0  0  0  0
M  CHG  2  18  -1  27   1
M  END
>  <Mol Weight>
553.57

>  <Formula>
C31H29FLiNO5S

>  <chembl_id>
CHEMBL10970

$$$$

  Mrv0541 06201412482D          

 42 45  0  0  0  0            999 V2000
    1.9364   -4.1268    0.0000 C   0  0  0  0  0  0  0  0  0  0  0  0
    1.5366   -4.8514    0.0000 C   0  0  0  0  0  0  0  0  0  0  0  0
    2.7401   -4.2892    0.0000 N   0  0  0  0  0  0  0  0  0  0  0  0
    2.8484   -5.1096    0.0000 C   0  0  0  0  0  0  0  0  0  0  0  0
    2.0988   -5.4594    0.0000 N   0  0  0  0  0  0  0  0  0  0  0  0
    7.8747   -6.1881    0.0000 C   0  0  0  0  0  0  0  0  0  0  0  0
    7.1751   -6.6254    0.0000 N   0  0  0  0  0  0  0  0  0  0  0  0
    7.2001   -7.4499    0.0000 C   0  0  0  0  0  0  0  0  0  0  0  0
    1.5866   -3.3898    0.0000 C   0  0  0  0  0  0  0  0  0  0  0  0
    0.7163   -4.9597    0.0000 C   0  0  0  0  0  0  0  0  0  0  0  0
    6.5005   -7.8830    0.0000 C   0  0  0  0  0  0  0  0  0  0  0  0
    7.8497   -5.3719    0.0000 N   0  0  0  0  0  0  0  0  0  0  0  0
    6.5255   -8.6992    0.0000 C   0  0  0  0  0  0  0  0  0  0  0  0
    8.6076   -6.5837    0.0000 O   0  0  0  0  0  0  0  0  0  0  0  0
    2.0530   -2.7151    0.0000 N   0  0  0  0  0  0  0  0  0  0  0  0
    0.2249   -4.3017    0.0000 N   0  0  0  0  0  0  0  0  0  0  0  0
    3.5729   -5.5010    0.0000 S   0  0  0  0  0  0  0  0  0  0  0  0
    7.9329   -7.8372    0.0000 C   0  0  0  0  0  0  0  0  0  0  0  0
    7.2583   -9.0990    0.0000 C   0  0  0  0  0  0  0  0  0  0  0  0
    5.7759   -7.4874    0.0000 F   0  0  0  0  0  0  0  0  0  0  0  0
    7.9579   -8.6617    0.0000 C   0  0  0  0  0  0  0  0  0  0  0  0
    7.2833   -9.9235    0.0000 F   0  0  0  0  0  0  0  0  0  0  0  0
    8.5493   -4.9347    0.0000 C   0  0  0  0  0  0  0  0  0  0  0  0
    7.1251   -4.9763    0.0000 C   0  0  0  0  0  0  0  0  0  0  0  0
    1.7032   -1.9656    0.0000 C   0  0  0  0  0  0  0  0  0  0  0  0
   -0.5955   -4.4017    0.0000 C   0  0  0  0  0  0  0  0  0  0  0  0
    0.7621   -3.3148    0.0000 C   0  0  0  0  0  0  0  0  0  0  0  0
    0.3998   -5.7217    0.0000 C   0  0  0  0  0  0  0  0  0  0  0  0
    4.2725   -5.0721    0.0000 C   0  0  0  0  0  0  0  0  0  0  0  0
    9.2822   -5.3261    0.0000 C   0  0  0  0  0  0  0  0  0  0  0  0
    6.4255   -5.4136    0.0000 C   0  0  0  0  0  0  0  0  0  0  0  0
    5.0013   -5.4594    0.0000 C   0  0  0  0  0  0  0  0  0  0  0  0
   12.1347   -5.2345    0.0000 C   0  0  0  0  0  0  0  0  0  0  0  0
   11.4102   -4.8472    0.0000 C   0  0  0  0  0  0  0  0  0  0  0  0
   10.7106   -5.2762    0.0000 C   0  0  0  0  0  0  0  0  0  0  0  0
    5.7009   -5.0263    0.0000 C   0  0  0  0  0  0  0  0  0  0  0  0
    9.9818   -4.8889    0.0000 C   0  0  0  0  0  0  0  0  0  0  0  0
   -0.9203   -5.1595    0.0000 C   0  0  0  0  0  0  0  0  0  0  0  0
    0.8870   -1.8906    0.0000 C   0  0  0  0  0  0  0  0  0  0  0  0
   12.8343   -4.8014    0.0000 C   0  0  0  0  0  0  0  0  0  0  0  0
   -0.4206   -5.8217    0.0000 C   0  0  0  0  0  0  0  0  0  0  0  0
    0.4123   -2.5652    0.0000 C   0  0  0  0  0  0  0  0  0  0  0  0
  2  1  2  0  0  0  0
  3  1  1  0  0  0  0
  4  3  2  0  0  0  0
  5  2  1  0  0  0  0
  6 12  1  0  0  0  0
  7  6  1  0  0  0  0
  8  7  1  0  0  0  0
  9  1  1  0  0  0  0
 10  2  1  0  0  0  0
 11  8  1  0  0  0  0
 12 24  1  0  0  0  0
 13 11  2  0  0  0  0
 14  6  2  0  0  0  0
 15  9  2  0  0  0  0
 16 10  2  0  0  0  0
 17  4  1  0  0  0  0
 18  8  2  0  0  0  0
 19 21  2  0  0  0  0
 20 11  1  0  0  0  0
 21 18  1  0  0  0  0
 22 19  1  0  0  0  0
 23 12  1  0  0  0  0
 24 31  1  0  0  0  0
 25 15  1  0  0  0  0
 26 16  1  0  0  0  0
 27  9  1  0  0  0  0
 28 10  1  0  0  0  0
 29 17  1  0  0  0  0
 30 23  1  0  0  0  0
 31 36  1  0  0  0  0
 32 29  1  0  0  0  0
 33 34  1  0  0  0  0
 34 35  1  0  0  0  0
 35 37  1  0  0  0  0
 36 32  1  0  0  0  0
 37 30  1  0  0  0  0
 38 41  1  0  0  0  0
 39 42  1  0  0  0  0
 40 33  1  0  0  0  0
 41 28  2  0  0  0  0
 42 27  2  0  0  0  0
  4  5  1  0  0  0  0
 39 25  2  0  0  0  0
 38 26  2  0  0  0  0
 19 13  1  0  0  0  0
M  END
>  <Mol Weight>
592.746

>  <Formula>
C32H38F2N6OS

>  <chembl_id>
CHEMBL11204

$$$$

  Mrv0541 06201412482D          

 39 43  0  0  1  0            999 V2000
    2.8473   -3.4523    0.0000 C   0  0  0  0  0  0  0  0  0  0  0  0
    4.9923   -2.2127    0.0000 C   0  0  0  0  0  0  0  0  0  0  0  0
    3.5538   -3.0335    0.0000 C   0  0  2  0  0  0  0  0  0  0  0  0
    5.7115   -1.7939    0.0000 C   0  0  2  0  0  0  0  0  0  0  0  0
    2.8473   -4.2689    0.0000 C   0  0  0  0  0  0  0  0  0  0  0  0
    4.9923   -3.0377    0.0000 C   0  0  0  0  0  0  0  0  0  0  0  0
    4.2689   -3.4523    0.0000 C   0  0  0  0  0  0  0  0  0  0  0  0
    6.3631   -1.3962    0.0000 O   0  0  0  0  0  0  0  0  0  0  0  0
    3.5538   -2.2000    0.0000 C   0  0  0  0  0  0  0  0  0  0  0  0
    2.1366   -3.0377    0.0000 C   0  0  0  0  0  0  0  0  0  0  0  0
    4.2816   -1.7939    0.0000 C   0  0  0  0  0  0  0  0  0  0  0  0
    6.4266   -2.2212    0.0000 C   0  0  0  0  0  0  0  0  0  0  0  0
    7.1881   -1.2692    0.0000 C   0  0  0  0  0  0  0  0  0  0  0  0
    6.4266   -3.0504    0.0000 C   0  0  0  0  0  0  0  0  0  0  0  0
    4.2689   -4.2689    0.0000 C   0  0  0  0  0  0  0  0  0  0  0  0
    3.5538   -4.6835    0.0000 C   0  0  2  0  0  0  0  0  0  0  0  0
    2.1366   -4.6750    0.0000 C   0  0  0  0  0  0  0  0  0  0  0  0
    5.7031   -0.9773    0.0000 C   0  0  0  0  0  0  0  0  0  0  0  0
    7.9877   -1.6162    0.0000 C   0  0  0  0  0  0  0  0  0  0  0  0
    1.4385   -3.4523    0.0000 C   0  0  0  0  0  0  0  0  0  0  0  0
    1.4385   -4.2689    0.0000 C   0  0  0  0  0  0  0  0  0  0  0  0
    8.1654   -2.4750    0.0000 O   0  0  0  0  0  0  0  0  0  0  0  0
    7.1077    0.7108    0.0000 C   0  0  0  0  0  0  0  0  0  0  0  0
    7.2219   -0.5373    0.0000 O   0  0  0  0  0  0  0  0  0  0  0  0
    8.7366   -1.1846    0.0000 C   0  0  0  0  0  0  0  0  0  0  0  0
    3.5454   -3.8458    0.0000 Cl  0  0  0  0  0  0  0  0  0  0  0  0
    6.4012   -0.5585    0.0000 C   0  0  0  0  0  0  0  0  0  0  0  0
    4.9923   -0.5754    0.0000 O   0  0  0  0  0  0  0  0  0  0  0  0
    9.0369   -2.5554    0.0000 C   0  0  0  0  0  0  0  0  0  0  0  0
    9.3839   -1.7515    0.0000 C   0  0  0  0  0  0  0  0  0  0  0  0
    6.3885    0.2792    0.0000 O   0  0  0  0  0  0  0  0  0  0  0  0
    7.0950    1.5485    0.0000 O   0  0  0  0  0  0  0  0  0  0  0  0
    0.7277   -4.6750    0.0000 O   0  0  0  0  0  0  0  0  0  0  0  0
    2.8473   -1.7939    0.0000 Cl  0  0  0  0  0  0  0  0  0  0  0  0
    2.8431   -2.6316    0.0000 C   0  0  0  0  0  0  0  0  0  0  0  0
    4.9923   -1.3962    0.0000 C   0  0  0  0  0  0  0  0  0  0  0  0
    3.5454   -5.5212    0.0000 F   0  0  0  0  0  0  0  0  0  0  0  0
    7.2473   -2.2127    0.0000 C   0  0  0  0  0  0  0  0  0  0  0  0
    7.8354    0.3004    0.0000 C   0  0  0  0  0  0  0  0  0  0  0  0
  2 11  1  0  0  0  0
  3  1  1  0  0  0  0
  4  2  1  0  0  0  0
  5  1  1  0  0  0  0
  6  7  1  0  0  0  0
  7  3  1  0  0  0  0
  4  8  1  6  0  0  0
  9  3  1  0  0  0  0
 10  1  1  0  0  0  0
 11  9  1  0  0  0  0
 12 14  1  0  0  0  0
 13  8  1  0  0  0  0
 14  6  1  0  0  0  0
 15 16  1  0  0  0  0
 16  5  1  0  0  0  0
 17  5  2  0  0  0  0
 18  4  1  0  0  0  0
 19 13  1  0  0  0  0
 20 10  2  0  0  0  0
 21 20  1  0  0  0  0
 22 19  1  0  0  0  0
 23 31  1  0  0  0  0
 24 13  2  0  0  0  0
 25 19  2  0  0  0  0
  3 26  1  6  0  0  0
 27 18  1  0  0  0  0
 28 18  2  0  0  0  0
 29 22  1  0  0  0  0
 30 25  1  0  0  0  0
 31 27  1  0  0  0  0
 32 23  2  0  0  0  0
 33 21  2  0  0  0  0
 34  9  1  0  0  0  0
 35  1  1  0  0  0  0
 36  2  1  0  0  0  0
 16 37  1  6  0  0  0
 12 38  1  0  0  0  0
 39 23  1  0  0  0  0
 17 21  1  0  0  0  0
  7 15  1  0  0  0  0
  2  6  1  0  0  0  0
 12  4  1  0  0  0  0
 29 30  2  0  0  0  0
M  END
>  <Mol Weight>
581.457

>  <Formula>
C29H31Cl2FO7

>  <chembl_id>
CHEMBL10950

$$$$

  Mrv0541 06201412482D          

 42 45  0  0  0  0            999 V2000
    1.9364   -4.1268    0.0000 C   0  0  0  0  0  0  0  0  0  0  0  0
    1.5366   -4.8514    0.0000 C   0  0  0  0  0  0  0  0  0  0  0  0
    2.7401   -4.2892    0.0000 N   0  0  0  0  0  0  0  0  0  0  0  0
    2.8484   -5.1096    0.0000 C   0  0  0  0  0  0  0  0  0  0  0  0
    2.0988   -5.4594    0.0000 N   0  0  0  0  0  0  0  0  0  0  0  0
    7.8747   -6.1881    0.0000 C   0  0  0  0  0  0  0  0  0  0  0  0
    7.1751   -6.6254    0.0000 N   0  0  0  0  0  0  0  0  0  0  0  0
    7.2001   -7.4499    0.0000 C   0  0  0  0  0  0  0  0  0  0  0  0
    6.5005   -7.8830    0.0000 C   0  0  0  0  0  0  0  0  0  0  0  0
    7.8497   -5.3719    0.0000 N   0  0  0  0  0  0  0  0  0  0  0  0
    6.5255   -8.6992    0.0000 C   0  0  0  0  0  0  0  0  0  0  0  0
    8.6076   -6.5837    0.0000 O   0  0  0  0  0  0  0  0  0  0  0  0
    1.5866   -3.3898    0.0000 C   0  0  0  0  0  0  0  0  0  0  0  0
    0.7163   -4.9597    0.0000 C   0  0  0  0  0  0  0  0  0  0  0  0
    3.5729   -5.5010    0.0000 S   0  0  0  0  0  0  0  0  0  0  0  0
    7.9329   -7.8372    0.0000 C   0  0  0  0  0  0  0  0  0  0  0  0
    7.2583   -9.0990    0.0000 C   0  0  0  0  0  0  0  0  0  0  0  0
    5.7759   -7.4874    0.0000 F   0  0  0  0  0  0  0  0  0  0  0  0
    7.9579   -8.6617    0.0000 C   0  0  0  0  0  0  0  0  0  0  0  0
    7.2833   -9.9235    0.0000 F   0  0  0  0  0  0  0  0  0  0  0  0
    8.5493   -4.9347    0.0000 C   0  0  0  0  0  0  0  0  0  0  0  0
    7.1251   -4.9763    0.0000 C   0  0  0  0  0  0  0  0  0  0  0  0
    4.2725   -5.0721    0.0000 C   0  0  0  0  0  0  0  0  0  0  0  0
    2.0613   -2.7151    0.0000 C   0  0  0  0  0  0  0  0  0  0  0  0
    0.7663   -3.3148    0.0000 C   0  0  0  0  0  0  0  0  0  0  0  0
    0.2249   -4.3017    0.0000 C   0  0  0  0  0  0  0  0  0  0  0  0
    0.4040   -5.7134    0.0000 C   0  0  0  0  0  0  0  0  0  0  0  0
    9.2822   -5.3261    0.0000 C   0  0  0  0  0  0  0  0  0  0  0  0
    6.4255   -5.4136    0.0000 C   0  0  0  0  0  0  0  0  0  0  0  0
    5.0013   -5.4594    0.0000 C   0  0  0  0  0  0  0  0  0  0  0  0
   12.1347   -5.2345    0.0000 C   0  0  0  0  0  0  0  0  0  0  0  0
   11.4102   -4.8472    0.0000 C   0  0  0  0  0  0  0  0  0  0  0  0
    5.7009   -5.0263    0.0000 C   0  0  0  0  0  0  0  0  0  0  0  0
    9.9818   -4.8889    0.0000 C   0  0  0  0  0  0  0  0  0  0  0  0
   10.7106   -5.2762    0.0000 C   0  0  0  0  0  0  0  0  0  0  0  0
   12.8343   -4.8014    0.0000 C   0  0  0  0  0  0  0  0  0  0  0  0
    0.4165   -2.5652    0.0000 C   0  0  0  0  0  0  0  0  0  0  0  0
   -0.5955   -4.3975    0.0000 C   0  0  0  0  0  0  0  0  0  0  0  0
   -0.4206   -5.8134    0.0000 C   0  0  0  0  0  0  0  0  0  0  0  0
    1.7157   -1.9656    0.0000 C   0  0  0  0  0  0  0  0  0  0  0  0
    0.8912   -1.8906    0.0000 C   0  0  0  0  0  0  0  0  0  0  0  0
   -0.9203   -5.1512    0.0000 C   0  0  0  0  0  0  0  0  0  0  0  0
  2  1  2  0  0  0  0
  3  1  1  0  0  0  0
  4  3  2  0  0  0  0
  5  2  1  0  0  0  0
  6 10  1  0  0  0  0
  7  6  1  0  0  0  0
  8  7  1  0  0  0  0
  9  8  1  0  0  0  0
 10 22  1  0  0  0  0
 11  9  2  0  0  0  0
 12  6  2  0  0  0  0
 13  1  1  0  0  0  0
 14  2  1  0  0  0  0
 15  4  1  0  0  0  0
 16  8  2  0  0  0  0
 17 19  2  0  0  0  0
 18  9  1  0  0  0  0
 19 16  1  0  0  0  0
 20 17  1  0  0  0  0
 21 10  1  0  0  0  0
 22 29  1  0  0  0  0
 23 15  1  0  0  0  0
 24 13  1  0  0  0  0
 25 13  1  0  0  0  0
 26 14  1  0  0  0  0
 27 14  1  0  0  0  0
 28 21  1  0  0  0  0
 29 33  1  0  0  0  0
 30 23  1  0  0  0  0
 31 32  1  0  0  0  0
 32 35  1  0  0  0  0
 33 30  1  0  0  0  0
 34 28  1  0  0  0  0
 35 34  1  0  0  0  0
 36 31  1  0  0  0  0
 37 25  1  0  0  0  0
 38 26  1  0  0  0  0
 39 27  1  0  0  0  0
 40 24  1  0  0  0  0
 41 37  1  0  0  0  0
 42 39  1  0  0  0  0
  4  5  1  0  0  0  0
 41 40  1  0  0  0  0
 42 38  1  0  0  0  0
 17 11  1  0  0  0  0
M  END
>  <Mol Weight>
602.865

>  <Formula>
C34H52F2N4OS

>  <chembl_id>
CHEMBL10954

$$$$

  Mrv0541 06201412482D          

 41 44  0  0  0  0            999 V2000
    2.6238   -0.3540    0.0000 C   0  0  0  0  0  0  0  0  0  0  0  0
    2.2240   -1.0745    0.0000 C   0  0  0  0  0  0  0  0  0  0  0  0
    3.4276   -0.5123    0.0000 N   0  0  0  0  0  0  0  0  0  0  0  0
    3.5359   -1.3286    0.0000 C   0  0  0  0  0  0  0  0  0  0  0  0
    2.7862   -1.6784    0.0000 N   0  0  0  0  0  0  0  0  0  0  0  0
    8.5628   -2.4114    0.0000 C   0  0  0  0  0  0  0  0  0  0  0  0
    7.8631   -2.8487    0.0000 N   0  0  0  0  0  0  0  0  0  0  0  0
    7.8881   -3.6733    0.0000 C   0  0  0  0  0  0  0  0  0  0  0  0
    7.1884   -4.1023    0.0000 C   0  0  0  0  0  0  0  0  0  0  0  0
    8.5378   -1.5910    0.0000 N   0  0  0  0  0  0  0  0  0  0  0  0
    7.2134   -4.9269    0.0000 C   0  0  0  0  0  0  0  0  0  0  0  0
    2.2740    0.3956    0.0000 C   0  0  0  0  0  0  0  0  0  0  0  0
    1.4036   -1.1787    0.0000 C   0  0  0  0  0  0  0  0  0  0  0  0
    9.2957   -2.8029    0.0000 O   0  0  0  0  0  0  0  0  0  0  0  0
    4.2605   -1.7242    0.0000 S   0  0  0  0  0  0  0  0  0  0  0  0
    8.6127   -4.0523    0.0000 C   0  0  0  0  0  0  0  0  0  0  0  0
    7.9464   -5.3143    0.0000 C   0  0  0  0  0  0  0  0  0  0  0  0
    6.4637   -3.7150    0.0000 F   0  0  0  0  0  0  0  0  0  0  0  0
    8.6460   -4.8770    0.0000 C   0  0  0  0  0  0  0  0  0  0  0  0
    7.9713   -6.1389    0.0000 F   0  0  0  0  0  0  0  0  0  0  0  0
   12.8233   -1.4535    0.0000 O   0  0  0  0  0  0  0  0  0  0  0  0
   10.6701   -1.1037    0.0000 O   0  0  0  0  0  0  0  0  0  0  0  0
    9.2375   -1.1537    0.0000 C   0  0  0  0  0  0  0  0  0  0  0  0
    7.8131   -1.1994    0.0000 C   0  0  0  0  0  0  0  0  0  0  0  0
    1.0912   -1.9283    0.0000 C   0  0  0  0  0  0  0  0  0  0  0  0
    1.4535    0.4581    0.0000 C   0  0  0  0  0  0  0  0  0  0  0  0
    2.7487    1.0703    0.0000 C   0  0  0  0  0  0  0  0  0  0  0  0
    0.9121   -0.5165    0.0000 C   0  0  0  0  0  0  0  0  0  0  0  0
    4.9602   -1.2911    0.0000 C   0  0  0  0  0  0  0  0  0  0  0  0
   12.0986   -1.0662    0.0000 C   0  0  0  0  0  0  0  0  0  0  0  0
    9.9704   -1.5410    0.0000 C   0  0  0  0  0  0  0  0  0  0  0  0
   11.3990   -1.4993    0.0000 C   0  0  0  0  0  0  0  0  0  0  0  0
    7.1134   -1.6285    0.0000 C   0  0  0  0  0  0  0  0  0  0  0  0
    5.6891   -1.6784    0.0000 C   0  0  0  0  0  0  0  0  0  0  0  0
    6.3888   -1.2411    0.0000 C   0  0  0  0  0  0  0  0  0  0  0  0
    1.1037    1.2077    0.0000 C   0  0  0  0  0  0  0  0  0  0  0  0
    2.3989    1.8117    0.0000 C   0  0  0  0  0  0  0  0  0  0  0  0
    0.0917   -0.6164    0.0000 C   0  0  0  0  0  0  0  0  0  0  0  0
    0.2749   -2.0408    0.0000 C   0  0  0  0  0  0  0  0  0  0  0  0
   -0.2249   -1.3786    0.0000 C   0  0  0  0  0  0  0  0  0  0  0  0
    1.5785    1.8949    0.0000 C   0  0  0  0  0  0  0  0  0  0  0  0
  2  1  2  0  0  0  0
  3  1  1  0  0  0  0
  4  3  2  0  0  0  0
  5  2  1  0  0  0  0
  6 10  1  0  0  0  0
  7  6  1  0  0  0  0
  8  7  1  0  0  0  0
  9  8  2  0  0  0  0
 10 24  1  0  0  0  0
 11  9  1  0  0  0  0
 12  1  1  0  0  0  0
 13  2  1  0  0  0  0
 14  6  2  0  0  0  0
 15  4  1  0  0  0  0
 16  8  1  0  0  0  0
 17 19  1  0  0  0  0
 18  9  1  0  0  0  0
 19 16  2  0  0  0  0
 20 17  1  0  0  0  0
 21 30  1  0  0  0  0
 22 31  1  0  0  0  0
 23 10  1  0  0  0  0
 24 33  1  0  0  0  0
 25 13  1  0  0  0  0
 26 12  1  0  0  0  0
 27 12  2  0  0  0  0
 28 13  2  0  0  0  0
 29 15  1  0  0  0  0
 30 32  1  0  0  0  0
 31 23  1  0  0  0  0
 32 22  1  0  0  0  0
 33 35  1  0  0  0  0
 34 29  1  0  0  0  0
 35 34  1  0  0  0  0
 36 26  2  0  0  0  0
 37 27  1  0  0  0  0
 38 28  1  0  0  0  0
 39 25  2  0  0  0  0
 40 38  2  0  0  0  0
 41 37  2  0  0  0  0
  4  5  1  0  0  0  0
 41 36  1  0  0  0  0
 40 39  1  0  0  0  0
 17 11  2  0  0  0  0
M  END
>  <Mol Weight>
580.688

>  <Formula>
C31H34F2N4O3S

>  <chembl_id>
CHEMBL11130

$$$$

  Mrv0541 06201412482D          

 39 42  0  0  0  0            999 V2000
    2.3906   -8.9626    0.0000 C   0  0  0  0  0  0  0  0  0  0  0  0
    1.9908   -9.6831    0.0000 C   0  0  0  0  0  0  0  0  0  0  0  0
    3.1985   -9.1208    0.0000 N   0  0  0  0  0  0  0  0  0  0  0  0
    3.3027   -9.9371    0.0000 C   0  0  0  0  0  0  0  0  0  0  0  0
    2.5530  -10.2870    0.0000 N   0  0  0  0  0  0  0  0  0  0  0  0
    8.3337  -11.0199    0.0000 C   0  0  0  0  0  0  0  0  0  0  0  0
    7.6340  -11.4572    0.0000 N   0  0  0  0  0  0  0  0  0  0  0  0
    8.3087  -10.1995    0.0000 N   0  0  0  0  0  0  0  0  0  0  0  0
   10.4369   -9.7122    0.0000 N   0  0  0  0  0  0  0  0  0  0  0  0
    2.0408   -8.2129    0.0000 C   0  0  0  0  0  0  0  0  0  0  0  0
    1.1745   -9.7872    0.0000 C   0  0  0  0  0  0  0  0  0  0  0  0
    9.0625  -11.4115    0.0000 O   0  0  0  0  0  0  0  0  0  0  0  0
    4.0274  -10.3328    0.0000 S   0  0  0  0  0  0  0  0  0  0  0  0
    9.0084   -9.7622    0.0000 C   0  0  0  0  0  0  0  0  0  0  0  0
    7.5840   -9.8080    0.0000 C   0  0  0  0  0  0  0  0  0  0  0  0
   11.8363   -8.8501    0.0000 O   0  0  0  0  0  0  0  0  0  0  0  0
    9.7372  -10.1495    0.0000 C   0  0  0  0  0  0  0  0  0  0  0  0
    6.1514   -9.8497    0.0000 N   0  0  0  0  0  0  0  0  0  0  0  0
    6.8760  -10.2370    0.0000 C   0  0  0  0  0  0  0  0  0  0  0  0
    4.7270   -9.8997    0.0000 C   0  0  0  0  0  0  0  0  0  0  0  0
    7.6590  -12.2819    0.0000 C   0  0  0  0  0  0  0  0  0  0  0  0
   10.4119   -8.8959    0.0000 C   0  0  0  0  0  0  0  0  0  0  0  0
   11.1699  -10.1079    0.0000 C   0  0  0  0  0  0  0  0  0  0  0  0
    5.4517  -10.2870    0.0000 C   0  0  0  0  0  0  0  0  0  0  0  0
   11.1116   -8.4628    0.0000 C   0  0  0  0  0  0  0  0  0  0  0  0
   11.8737   -9.6706    0.0000 C   0  0  0  0  0  0  0  0  0  0  0  0
    0.8538  -10.5369    0.0000 C   0  0  0  0  0  0  0  0  0  0  0  0
    1.2244   -8.1505    0.0000 C   0  0  0  0  0  0  0  0  0  0  0  0
    2.5155   -7.5382    0.0000 C   0  0  0  0  0  0  0  0  0  0  0  0
    0.6789   -9.1250    0.0000 C   0  0  0  0  0  0  0  0  0  0  0  0
    6.1264   -9.0251    0.0000 C   0  0  0  0  0  0  0  0  0  0  0  0
    6.9593  -12.7109    0.0000 C   0  0  0  0  0  0  0  0  0  0  0  0
    8.3878  -12.6692    0.0000 C   0  0  0  0  0  0  0  0  0  0  0  0
    0.0417  -10.6493    0.0000 C   0  0  0  0  0  0  0  0  0  0  0  0
    0.8663   -7.4008    0.0000 C   0  0  0  0  0  0  0  0  0  0  0  0
    2.1657   -6.7969    0.0000 C   0  0  0  0  0  0  0  0  0  0  0  0
   -0.1374   -9.2250    0.0000 C   0  0  0  0  0  0  0  0  0  0  0  0
    1.3411   -6.7219    0.0000 C   0  0  0  0  0  0  0  0  0  0  0  0
   -0.4581   -9.9871    0.0000 C   0  0  0  0  0  0  0  0  0  0  0  0
  2  1  2  0  0  0  0
  3  1  1  0  0  0  0
  4  3  2  0  0  0  0
  5  2  1  0  0  0  0
  6  8  1  0  0  0  0
  7  6  1  0  0  0  0
  8 15  1  0  0  0  0
  9 17  1  0  0  0  0
 10  1  1  0  0  0  0
 11  2  1  0  0  0  0
 12  6  2  0  0  0  0
 13  4  1  0  0  0  0
 14  8  1  0  0  0  0
 15 19  1  0  0  0  0
 16 26  1  0  0  0  0
 17 14  1  0  0  0  0
 18 24  1  0  0  0  0
 19 18  1  0  0  0  0
 20 13  1  0  0  0  0
 21  7  1  0  0  0  0
 22  9  1  0  0  0  0
 23  9  1  0  0  0  0
 24 20  1  0  0  0  0
 25 22  1  0  0  0  0
 26 23  1  0  0  0  0
 27 11  1  0  0  0  0
 28 10  1  0  0  0  0
 29 10  2  0  0  0  0
 30 11  2  0  0  0  0
 31 18  1  0  0  0  0
 32 21  1  0  0  0  0
 33 21  1  0  0  0  0
 34 27  2  0  0  0  0
 35 28  2  0  0  0  0
 36 29  1  0  0  0  0
 37 30  1  0  0  0  0
 38 36  2  0  0  0  0
 39 37  2  0  0  0  0
  4  5  1  0  0  0  0
 35 38  1  0  0  0  0
 39 34  1  0  0  0  0
 25 16  1  0  0  0  0
M  END
>  <Mol Weight>
550.758

>  <Formula>
C30H42N6O2S

>  <chembl_id>
CHEMBL11110

$$$$

  Mrv0541 06201412482D          

 41 45  0  0  0  0            999 V2000
   -0.3431   -2.3791    0.0000 C   0  0  0  0  0  0  0  0  0  0  0  0
   -0.3443   -3.2065    0.0000 C   0  0  0  0  0  0  0  0  0  0  0  0
    0.3706   -3.6194    0.0000 C   0  0  0  0  0  0  0  0  0  0  0  0
    0.3688   -1.9664    0.0000 C   0  0  0  0  0  0  0  0  0  0  0  0
    1.0841   -2.3755    0.0000 C   0  0  0  0  0  0  0  0  0  0  0  0
    1.0849   -3.2023    0.0000 C   0  0  0  0  0  0  0  0  0  0  0  0
    1.8002   -3.6133    0.0000 N   0  0  0  0  0  0  0  0  0  0  0  0
    2.5152   -3.1985    0.0000 C   0  0  0  0  0  0  0  0  0  0  0  0
    2.5105   -2.3686    0.0000 C   0  0  0  0  0  0  0  0  0  0  0  0
    1.7946   -1.9613    0.0000 C   0  0  0  0  0  0  0  0  0  0  0  0
    3.2313   -3.6083    0.0000 C   0  0  0  0  0  0  0  0  0  0  0  0
    1.7902   -1.1364    0.0000 N   0  0  0  0  0  0  0  0  0  0  0  0
    2.5025   -0.7201    0.0000 C   0  0  0  0  0  0  0  0  0  0  0  0
    2.4981    0.1049    0.0000 O   0  0  0  0  0  0  0  0  0  0  0  0
    3.2191   -1.1288    0.0000 N   0  0  0  0  0  0  0  0  0  0  0  0
    3.9314   -0.7125    0.0000 C   0  0  0  0  0  0  0  0  0  0  0  0
    4.6481   -1.1212    0.0000 C   0  0  0  0  0  0  0  0  0  0  0  0
    5.3603   -0.7049    0.0000 N   0  0  0  0  0  0  0  0  0  0  0  0
    6.0790   -1.1196    0.0000 C   0  0  0  0  0  0  0  0  0  0  0  0
    6.0725    0.5294    0.0000 C   0  0  0  0  0  0  0  0  0  0  0  0
    5.3561    0.1150    0.0000 C   0  0  0  0  0  0  0  0  0  0  0  0
    6.0803   -1.9446    0.0000 C   0  0  0  0  0  0  0  0  0  0  0  0
    6.7954   -2.3559    0.0000 C   0  0  0  0  0  0  0  0  0  0  0  0
    6.7967   -3.1809    0.0000 C   0  0  0  0  0  0  0  0  0  0  0  0
    6.0817   -3.5910    0.0000 C   0  0  0  0  0  0  0  0  0  0  0  0
    6.0826   -4.4153    0.0000 C   0  0  0  0  0  0  0  0  0  0  0  0
    6.7983   -4.8275    0.0000 C   0  0  0  0  0  0  0  0  0  0  0  0
    7.5145   -4.4094    0.0000 C   0  0  0  0  0  0  0  0  0  0  0  0
    7.5100   -3.5865    0.0000 C   0  0  0  0  0  0  0  0  0  0  0  0
    5.3676   -3.1779    0.0000 F   0  0  0  0  0  0  0  0  0  0  0  0
    8.2310   -4.8182    0.0000 F   0  0  0  0  0  0  0  0  0  0  0  0
    6.7890    0.1185    0.0000 C   0  0  0  0  0  0  0  0  0  0  0  0
    6.7891   -0.7065    0.0000 C   0  0  0  0  0  0  0  0  0  0  0  0
    7.5025   -1.1172    0.0000 C   0  0  0  0  0  0  0  0  0  0  0  0
    8.2163   -0.7039    0.0000 C   0  0  0  0  0  0  0  0  0  0  0  0
    8.2123    0.1242    0.0000 C   0  0  0  0  0  0  0  0  0  0  0  0
    7.4983    0.5312    0.0000 C   0  0  0  0  0  0  0  0  0  0  0  0
    8.9246    0.5405    0.0000 O   0  0  0  0  0  0  0  0  0  0  0  0
    9.6412    0.1317    0.0000 C   0  0  0  0  0  0  0  0  0  0  0  0
    8.9320   -1.1143    0.0000 O   0  0  0  0  0  0  0  0  0  0  0  0
    8.9345   -1.9393    0.0000 C   0  0  0  0  0  0  0  0  0  0  0  0
  9 10  2  0  0  0  0
 18 21  1  0  0  0  0
 19 33  1  0  0  0  0
 32 20  1  0  0  0  0
 20 21  1  0  0  0  0
 10  5  1  0  0  0  0
 19 22  1  0  0  0  0
 22 23  1  0  0  0  0
  8 11  1  0  0  0  0
 23 24  1  0  0  0  0
  2  3  1  0  0  0  0
 24 25  2  0  0  0  0
 10 12  1  0  0  0  0
 25 26  1  0  0  0  0
  5  6  1  0  0  0  0
 26 27  2  0  0  0  0
 12 13  1  0  0  0  0
 27 28  1  0  0  0  0
  3  6  2  0  0  0  0
 28 29  2  0  0  0  0
 29 24  1  0  0  0  0
 13 14  2  0  0  0  0
 25 30  1  0  0  0  0
  6  7  1  0  0  0  0
 28 31  1  0  0  0  0
 13 15  1  0  0  0  0
  1  2  2  0  0  0  0
 32 33  2  0  0  0  0
 15 16  1  0  0  0  0
 33 34  1  0  0  0  0
  7  8  2  0  0  0  0
 34 35  2  0  0  0  0
 16 17  1  0  0  0  0
 35 36  1  0  0  0  0
  5  4  2  0  0  0  0
 36 37  2  0  0  0  0
 37 32  1  0  0  0  0
 17 18  1  0  0  0  0
 36 38  1  0  0  0  0
 18 19  1  0  0  0  0
 38 39  1  0  0  0  0
  8  9  1  0  0  0  0
 35 40  1  0  0  0  0
  4  1  1  0  0  0  0
 40 41  1  0  0  0  0
M  END
>  <Mol Weight>
560.6342

>  <Formula>
C32H34F2N4O3

>  <chembl_id>
CHEMBL1163360

$$$$

  Mrv0541 06201412482D          

 32 35  0  0  0  0            999 V2000
   11.0056   -6.1015    0.0000 C   0  0  0  0  0  0  0  0  0  0  0  0
    5.2479   -6.0901    0.0000 C   0  0  0  0  0  0  0  0  0  0  0  0
   12.2431   -5.3682    0.0000 N   0  0  0  0  0  0  0  0  0  0  0  0
    4.0276   -5.3682    0.0000 N   0  0  0  0  0  0  0  0  0  0  0  0
    4.8468   -5.3682    0.0000 C   0  0  0  0  0  0  0  0  0  0  0  0
   11.4181   -5.3796    0.0000 C   0  0  0  0  0  0  0  0  0  0  0  0
    6.0729   -6.0901    0.0000 C   0  0  0  0  0  0  0  0  0  0  0  0
   10.1921   -6.1015    0.0000 C   0  0  0  0  0  0  0  0  0  0  0  0
   11.4295   -6.8119    0.0000 O   0  0  0  0  0  0  0  0  0  0  0  0
    4.8354   -6.8062    0.0000 O   0  0  0  0  0  0  0  0  0  0  0  0
    8.5479   -6.1073    0.0000 C   0  0  0  0  0  0  0  0  0  0  0  0
    7.7229   -6.1073    0.0000 C   0  0  0  0  0  0  0  0  0  0  0  0
    6.4796   -6.8119    0.0000 C   0  0  0  0  0  0  0  0  0  0  0  0
    9.7853   -5.3682    0.0000 C   0  0  0  0  0  0  0  0  0  0  0  0
    9.7853   -6.8119    0.0000 C   0  0  0  0  0  0  0  0  0  0  0  0
    6.4796   -5.3682    0.0000 C   0  0  0  0  0  0  0  0  0  0  0  0
    8.9604   -6.8119    0.0000 C   0  0  0  0  0  0  0  0  0  0  0  0
    7.3104   -6.8119    0.0000 C   0  0  0  0  0  0  0  0  0  0  0  0
    7.3104   -5.3968    0.0000 C   0  0  0  0  0  0  0  0  0  0  0  0
    8.9432   -5.4026    0.0000 C   0  0  0  0  0  0  0  0  0  0  0  0
    5.6604   -5.3796    0.0000 O   0  0  0  0  0  0  0  0  0  0  0  0
   10.6103   -5.3796    0.0000 O   0  0  0  0  0  0  0  0  0  0  0  0
    4.0104   -6.7948    0.0000 C   0  0  0  0  0  0  0  0  0  0  0  0
   12.2545   -6.7948    0.0000 C   0  0  0  0  0  0  0  0  0  0  0  0
   13.8759   -3.9245    0.0000 Br  0  0  0  0  0  0  0  0  0  0  0  0
    2.3890   -3.9245    0.0000 Br  0  0  0  0  0  0  0  0  0  0  0  0
    3.5979   -6.0729    0.0000 C   0  0  0  0  0  0  0  0  0  0  0  0
   12.6556   -6.0843    0.0000 C   0  0  0  0  0  0  0  0  0  0  0  0
    3.6151   -4.6463    0.0000 C   0  0  0  0  0  0  0  0  0  0  0  0
   12.6384   -4.6463    0.0000 C   0  0  0  0  0  0  0  0  0  0  0  0
    2.7901   -4.6406    0.0000 C   0  0  0  0  0  0  0  0  0  0  0  0
   13.4634   -4.6463    0.0000 C   0  0  0  0  0  0  0  0  0  0  0  0
  2  7  1  0  0  0  0
  3  6  1  0  0  0  0
  4  5  1  0  0  0  0
  5  2  1  0  0  0  0
  6  1  1  0  0  0  0
  7 16  1  0  0  0  0
  8  1  1  0  0  0  0
  9  1  1  0  0  0  0
 10  2  1  0  0  0  0
 11 17  2  0  0  0  0
 12 11  1  0  0  0  0
 13 18  1  0  0  0  0
 14  8  1  0  0  0  0
 15  8  2  0  0  0  0
 16 19  2  0  0  0  0
 17 15  1  0  0  0  0
 18 12  2  0  0  0  0
 19 12  1  0  0  0  0
 20 14  2  0  0  0  0
 21  2  1  0  0  0  0
 22  1  1  0  0  0  0
 23 10  1  0  0  0  0
 24  9  1  0  0  0  0
 25 32  1  0  0  0  0
 26 31  1  0  0  0  0
 27 23  1  0  0  0  0
 28 24  1  0  0  0  0
 29  4  1  0  0  0  0
 30  3  1  0  0  0  0
 31 29  1  0  0  0  0
 32 30  1  0  0  0  0
  3 28  1  0  0  0  0
 11 20  1  0  0  0  0
  7 13  2  0  0  0  0
  4 27  1  0  0  0  0
M  END
>  <Mol Weight>
570.314

>  <Formula>
C24H30Br2N2O4

>  <chembl_id>
CHEMBL10936

$$$$

  Mrv0541 06201412482D          

 40 43  0  0  0  0            999 V2000
    1.9366   -4.1273    0.0000 C   0  0  0  0  0  0  0  0  0  0  0  0
    1.5368   -4.8520    0.0000 C   0  0  0  0  0  0  0  0  0  0  0  0
    2.7404   -4.2897    0.0000 N   0  0  0  0  0  0  0  0  0  0  0  0
    2.8487   -5.1102    0.0000 C   0  0  0  0  0  0  0  0  0  0  0  0
    2.0990   -5.4600    0.0000 N   0  0  0  0  0  0  0  0  0  0  0  0
    7.8756   -6.1889    0.0000 C   0  0  0  0  0  0  0  0  0  0  0  0
    1.5868   -3.3901    0.0000 C   0  0  0  0  0  0  0  0  0  0  0  0
    0.7164   -4.9602    0.0000 C   0  0  0  0  0  0  0  0  0  0  0  0
    7.1759   -6.6262    0.0000 N   0  0  0  0  0  0  0  0  0  0  0  0
    7.2009   -7.4508    0.0000 C   0  0  0  0  0  0  0  0  0  0  0  0
    6.5012   -7.8839    0.0000 C   0  0  0  0  0  0  0  0  0  0  0  0
    7.8506   -5.3725    0.0000 N   0  0  0  0  0  0  0  0  0  0  0  0
    6.5262   -8.7002    0.0000 C   0  0  0  0  0  0  0  0  0  0  0  0
    1.9908   -2.6613    0.0000 O   0  0  0  0  0  0  0  0  0  0  0  0
    0.1541   -4.3522    0.0000 O   0  0  0  0  0  0  0  0  0  0  0  0
    8.6085   -6.5845    0.0000 O   0  0  0  0  0  0  0  0  0  0  0  0
    0.7788   -3.2277    0.0000 C   0  0  0  0  0  0  0  0  0  0  0  0
    0.3166   -5.6766    0.0000 C   0  0  0  0  0  0  0  0  0  0  0  0
   -0.5872   -4.7020    0.0000 C   0  0  0  0  0  0  0  0  0  0  0  0
    1.4285   -2.0658    0.0000 C   0  0  0  0  0  0  0  0  0  0  0  0
    3.5734   -5.5017    0.0000 S   0  0  0  0  0  0  0  0  0  0  0  0
   -0.4831   -5.5350    0.0000 C   0  0  0  0  0  0  0  0  0  0  0  0
    0.6664   -2.4239    0.0000 C   0  0  0  0  0  0  0  0  0  0  0  0
    7.9339   -7.8381    0.0000 C   0  0  0  0  0  0  0  0  0  0  0  0
    7.2592   -9.1000    0.0000 C   0  0  0  0  0  0  0  0  0  0  0  0
    5.7765   -7.4883    0.0000 F   0  0  0  0  0  0  0  0  0  0  0  0
    7.9588   -8.6627    0.0000 C   0  0  0  0  0  0  0  0  0  0  0  0
    7.2842   -9.9246    0.0000 F   0  0  0  0  0  0  0  0  0  0  0  0
    8.5503   -4.9352    0.0000 C   0  0  0  0  0  0  0  0  0  0  0  0
    7.1259   -4.9769    0.0000 C   0  0  0  0  0  0  0  0  0  0  0  0
    4.2730   -5.0727    0.0000 C   0  0  0  0  0  0  0  0  0  0  0  0
    9.2832   -5.3268    0.0000 C   0  0  0  0  0  0  0  0  0  0  0  0
    6.4263   -5.4142    0.0000 C   0  0  0  0  0  0  0  0  0  0  0  0
    5.0019   -5.4600    0.0000 C   0  0  0  0  0  0  0  0  0  0  0  0
   12.1361   -5.2351    0.0000 C   0  0  0  0  0  0  0  0  0  0  0  0
   11.4115   -4.8478    0.0000 C   0  0  0  0  0  0  0  0  0  0  0  0
    9.9829   -4.8895    0.0000 C   0  0  0  0  0  0  0  0  0  0  0  0
   10.7118   -5.2768    0.0000 C   0  0  0  0  0  0  0  0  0  0  0  0
    5.7016   -5.0269    0.0000 C   0  0  0  0  0  0  0  0  0  0  0  0
   12.8358   -4.8020    0.0000 C   0  0  0  0  0  0  0  0  0  0  0  0
  2  1  2  0  0  0  0
  3  1  1  0  0  0  0
  4  3  2  0  0  0  0
  5  2  1  0  0  0  0
  6 12  1  0  0  0  0
  7  1  1  0  0  0  0
  8  2  1  0  0  0  0
  9  6  1  0  0  0  0
 10  9  1  0  0  0  0
 11 10  1  0  0  0  0
 12 30  1  0  0  0  0
 13 11  2  0  0  0  0
 14  7  1  0  0  0  0
 15  8  1  0  0  0  0
 16  6  2  0  0  0  0
 17  7  2  0  0  0  0
 18  8  2  0  0  0  0
 19 15  1  0  0  0  0
 20 14  1  0  0  0  0
 21  4  1  0  0  0  0
 22 18  1  0  0  0  0
 23 17  1  0  0  0  0
 24 10  2  0  0  0  0
 25 27  2  0  0  0  0
 26 11  1  0  0  0  0
 27 24  1  0  0  0  0
 28 25  1  0  0  0  0
 29 12  1  0  0  0  0
 30 33  1  0  0  0  0
 31 21  1  0  0  0  0
 32 29  1  0  0  0  0
 33 39  1  0  0  0  0
 34 31  1  0  0  0  0
 35 36  1  0  0  0  0
 36 38  1  0  0  0  0
 37 32  1  0  0  0  0
 38 37  1  0  0  0  0
 39 34  1  0  0  0  0
 40 35  1  0  0  0  0
  4  5  1  0  0  0  0
 23 20  2  0  0  0  0
 22 19  2  0  0  0  0
 25 13  1  0  0  0  0
M  END
>  <Mol Weight>
570.694

>  <Formula>
C30H36F2N4O3S

>  <chembl_id>
CHEMBL10916

$$$$

  Mrv0541 06201412482D          

 37 38  0  0  0  0            999 V2000
   12.9708   -4.2268    0.0000 S   0  0  0  0  0  0  0  0  0  0  0  0
    1.6463   -1.7773    0.0000 N   0  0  0  0  0  0  0  0  0  0  0  0
    9.0573   -6.6477    0.0000 P   0  0  0  0  0  0  0  0  0  0  0  0
    1.1678   -1.0995    0.0000 C   0  0  0  0  0  0  0  0  0  0  0  0
    0.3760   -1.3387    0.0000 N   0  0  0  0  0  0  0  0  0  0  0  0
   12.3613   -3.3666    0.0000 N   0  0  0  0  0  0  0  0  0  0  0  0
    2.4666   -1.7944    0.0000 C   0  0  0  0  0  0  0  0  0  0  0  0
    0.3646   -2.1590    0.0000 C   0  0  0  0  0  0  0  0  0  0  0  0
    1.1450   -2.4267    0.0000 C   0  0  0  0  0  0  0  0  0  0  0  0
   13.7797   -3.7141    0.0000 O   0  0  0  0  0  0  0  0  0  0  0  0
   12.1562   -4.6540    0.0000 O   0  0  0  0  0  0  0  0  0  0  0  0
    9.0460   -5.8161    0.0000 O   0  0  0  0  0  0  0  0  0  0  0  0
    9.8776   -6.6477    0.0000 O   0  0  0  0  0  0  0  0  0  0  0  0
    8.2370   -6.6477    0.0000 O   0  0  0  0  0  0  0  0  0  0  0  0
    9.0460   -7.4680    0.0000 O   0  0  0  0  0  0  0  0  0  0  0  0
    2.8938   -1.0824    0.0000 C   0  0  0  0  0  0  0  0  0  0  0  0
    2.8710   -2.5121    0.0000 C   0  0  0  0  0  0  0  0  0  0  0  0
   11.5353   -3.3552    0.0000 C   0  0  0  0  0  0  0  0  0  0  0  0
    9.0631   -3.3211    0.0000 O   0  0  0  0  0  0  0  0  0  0  0  0
   13.3696   -4.9388    0.0000 C   0  0  0  0  0  0  0  0  0  0  0  0
    9.8833   -3.3324    0.0000 C   0  0  0  0  0  0  0  0  0  0  0  0
    7.8098   -4.0160    0.0000 C   0  0  0  0  0  0  0  0  0  0  0  0
    4.1243   -1.8172    0.0000 C   0  0  0  0  0  0  0  0  0  0  0  0
    8.6358   -4.0217    0.0000 C   0  0  0  0  0  0  0  0  0  0  0  0
    3.6970   -2.5292    0.0000 C   0  0  0  0  0  0  0  0  0  0  0  0
    3.7255   -1.0995    0.0000 C   0  0  0  0  0  0  0  0  0  0  0  0
    6.5851   -3.2811    0.0000 N   0  0  0  0  0  0  0  0  0  0  0  0
   11.1080   -4.0672    0.0000 C   0  0  0  0  0  0  0  0  0  0  0  0
   11.1251   -2.6375    0.0000 C   0  0  0  0  0  0  0  0  0  0  0  0
   10.2764   -4.0559    0.0000 C   0  0  0  0  0  0  0  0  0  0  0  0
   10.3048   -2.6317    0.0000 C   0  0  0  0  0  0  0  0  0  0  0  0
    7.3883   -4.7224    0.0000 O   0  0  0  0  0  0  0  0  0  0  0  0
    1.4412   -0.3247    0.0000 C   0  0  0  0  0  0  0  0  0  0  0  0
    4.9445   -1.8343    0.0000 O   0  0  0  0  0  0  0  0  0  0  0  0
    7.4054   -3.2869    0.0000 C   0  0  0  0  0  0  0  0  0  0  0  0
    6.1750   -2.5520    0.0000 C   0  0  0  0  0  0  0  0  0  0  0  0
    5.3547   -2.5463    0.0000 C   0  0  0  0  0  0  0  0  0  0  0  0
  2  7  1  0  0  0  0
  4  2  1  0  0  0  0
  5  4  2  0  0  0  0
  6  1  1  0  0  0  0
  7 17  1  0  0  0  0
  8  9  2  0  0  0  0
  9  2  1  0  0  0  0
 10  1  2  0  0  0  0
 11  1  2  0  0  0  0
 12  3  2  0  0  0  0
 13  3  1  0  0  0  0
 14  3  1  0  0  0  0
 15  3  1  0  0  0  0
 16 26  1  0  0  0  0
 17 25  2  0  0  0  0
 18  6  1  0  0  0  0
 19 21  1  0  0  0  0
 20  1  1  0  0  0  0
 21 30  2  0  0  0  0
 22 24  1  0  0  0  0
 23 34  1  0  0  0  0
 24 19  1  0  0  0  0
 25 23  1  0  0  0  0
 26 23  2  0  0  0  0
 27 35  1  0  0  0  0
 28 18  2  0  0  0  0
 29 18  1  0  0  0  0
 30 28  1  0  0  0  0
 31 29  2  0  0  0  0
 32 22  1  0  0  0  0
 33  4  1  0  0  0  0
 34 37  1  0  0  0  0
 35 22  1  0  0  0  0
 36 27  1  0  0  0  0
 37 36  1  0  0  0  0
 31 21  1  0  0  0  0
 16  7  2  0  0  0  0
  5  8  1  0  0  0  0
M  END
>  <Mol Weight>
558.542

>  <Formula>
C22H31N4O9PS

>  <chembl_id>
CHEMBL11629

$$$$

  Mrv0541 06201412482D          

 42 45  0  0  0  0            999 V2000
    1.9364   -4.1268    0.0000 C   0  0  0  0  0  0  0  0  0  0  0  0
    1.5366   -4.8514    0.0000 C   0  0  0  0  0  0  0  0  0  0  0  0
    2.7401   -4.2892    0.0000 N   0  0  0  0  0  0  0  0  0  0  0  0
    2.8484   -5.1096    0.0000 C   0  0  0  0  0  0  0  0  0  0  0  0
    2.0988   -5.4594    0.0000 N   0  0  0  0  0  0  0  0  0  0  0  0
    7.8747   -6.1881    0.0000 C   0  0  0  0  0  0  0  0  0  0  0  0
    7.1751   -6.6254    0.0000 N   0  0  0  0  0  0  0  0  0  0  0  0
    7.2001   -7.4499    0.0000 C   0  0  0  0  0  0  0  0  0  0  0  0
    6.5005   -7.8872    0.0000 C   0  0  0  0  0  0  0  0  0  0  0  0
    7.8497   -5.3719    0.0000 N   0  0  0  0  0  0  0  0  0  0  0  0
    6.5255   -8.7075    0.0000 C   0  0  0  0  0  0  0  0  0  0  0  0
    1.5866   -3.3898    0.0000 C   0  0  0  0  0  0  0  0  0  0  0  0
    0.7163   -4.9597    0.0000 C   0  0  0  0  0  0  0  0  0  0  0  0
    8.6076   -6.5837    0.0000 O   0  0  0  0  0  0  0  0  0  0  0  0
    3.5729   -5.5010    0.0000 S   0  0  0  0  0  0  0  0  0  0  0  0
    7.9247   -7.8372    0.0000 C   0  0  0  0  0  0  0  0  0  0  0  0
    7.2583   -9.0990    0.0000 C   0  0  0  0  0  0  0  0  0  0  0  0
    5.7759   -7.4957    0.0000 F   0  0  0  0  0  0  0  0  0  0  0  0
    7.9579   -8.6617    0.0000 C   0  0  0  0  0  0  0  0  0  0  0  0
    7.2833   -9.9235    0.0000 F   0  0  0  0  0  0  0  0  0  0  0  0
    5.7009   -5.0263    0.0000 O   0  0  0  0  0  0  0  0  0  0  0  0
    7.1251   -4.9763    0.0000 C   0  0  0  0  0  0  0  0  0  0  0  0
    8.5493   -4.9347    0.0000 C   0  0  0  0  0  0  0  0  0  0  0  0
    0.4040   -5.7134    0.0000 C   0  0  0  0  0  0  0  0  0  0  0  0
    0.7663   -3.3231    0.0000 C   0  0  0  0  0  0  0  0  0  0  0  0
    2.0613   -2.7151    0.0000 C   0  0  0  0  0  0  0  0  0  0  0  0
    0.2249   -4.2975    0.0000 C   0  0  0  0  0  0  0  0  0  0  0  0
    4.2725   -5.0721    0.0000 C   0  0  0  0  0  0  0  0  0  0  0  0
    6.4255   -5.4136    0.0000 C   0  0  0  0  0  0  0  0  0  0  0  0
    5.0013   -5.4594    0.0000 C   0  0  0  0  0  0  0  0  0  0  0  0
    9.2822   -5.3261    0.0000 C   0  0  0  0  0  0  0  0  0  0  0  0
   12.1347   -5.2345    0.0000 C   0  0  0  0  0  0  0  0  0  0  0  0
   11.4102   -4.8472    0.0000 C   0  0  0  0  0  0  0  0  0  0  0  0
    9.9818   -4.8889    0.0000 C   0  0  0  0  0  0  0  0  0  0  0  0
   10.7106   -5.2762    0.0000 C   0  0  0  0  0  0  0  0  0  0  0  0
   12.8343   -4.8014    0.0000 C   0  0  0  0  0  0  0  0  0  0  0  0
    0.4165   -2.5777    0.0000 C   0  0  0  0  0  0  0  0  0  0  0  0
    1.7115   -1.9656    0.0000 C   0  0  0  0  0  0  0  0  0  0  0  0
   -0.5955   -4.4017    0.0000 C   0  0  0  0  0  0  0  0  0  0  0  0
   -0.4123   -5.8217    0.0000 C   0  0  0  0  0  0  0  0  0  0  0  0
   -0.9120   -5.1595    0.0000 C   0  0  0  0  0  0  0  0  0  0  0  0
    0.8912   -1.8906    0.0000 C   0  0  0  0  0  0  0  0  0  0  0  0
  2  1  2  0  0  0  0
  3  1  1  0  0  0  0
  4  3  2  0  0  0  0
  5  2  1  0  0  0  0
  6 10  1  0  0  0  0
  7  6  1  0  0  0  0
  8  7  1  0  0  0  0
  9  8  2  0  0  0  0
 10 22  1  0  0  0  0
 11  9  1  0  0  0  0
 12  1  1  0  0  0  0
 13  2  1  0  0  0  0
 14  6  2  0  0  0  0
 15  4  1  0  0  0  0
 16  8  1  0  0  0  0
 17 19  1  0  0  0  0
 18  9  1  0  0  0  0
 19 16  2  0  0  0  0
 20 17  1  0  0  0  0
 21 30  1  0  0  0  0
 22 29  1  0  0  0  0
 23 10  1  0  0  0  0
 24 13  1  0  0  0  0
 25 12  1  0  0  0  0
 26 12  2  0  0  0  0
 27 13  2  0  0  0  0
 28 15  1  0  0  0  0
 29 21  1  0  0  0  0
 30 28  1  0  0  0  0
 31 23  1  0  0  0  0
 32 33  1  0  0  0  0
 33 35  1  0  0  0  0
 34 31  1  0  0  0  0
 35 34  1  0  0  0  0
 36 32  1  0  0  0  0
 37 25  2  0  0  0  0
 38 26  1  0  0  0  0
 39 27  1  0  0  0  0
 40 24  2  0  0  0  0
 41 39  2  0  0  0  0
 42 38  2  0  0  0  0
  4  5  1  0  0  0  0
 42 37  1  0  0  0  0
 41 40  1  0  0  0  0
 17 11  2  0  0  0  0
M  END
>  <Mol Weight>
592.742

>  <Formula>
C33H38F2N4O2S

>  <chembl_id>
CHEMBL11422

$$$$

  Mrv0541 06201412482D          

 38 40  0  0  1  0            999 V2000
    6.7534   -1.4623    0.0000 S   0  0  0  0  0  0  0  0  0  0  0  0
    7.4658   -1.8748    0.0000 C   0  0  0  0  0  0  0  0  0  0  0  0
    6.7409   -3.1038    0.0000 S   0  0  0  0  0  0  0  0  0  0  0  0
    7.4533   -2.6997    0.0000 C   0  0  0  0  0  0  0  0  0  0  0  0
    6.0160   -1.0874    0.0000 N   0  0  0  0  0  0  0  0  0  0  0  0
    5.9785   -0.2625    0.0000 C   0  0  2  0  0  0  0  0  0  0  0  0
    6.6784    0.1833    0.0000 C   0  0  0  0  0  0  0  0  0  0  0  0
   -0.3833   -1.7498    0.0000 C   0  0  0  0  0  0  0  0  0  0  0  0
    6.3285   -2.1748    0.0000 O   0  0  0  0  0  0  0  0  0  0  0  0
    7.1534   -0.7499    0.0000 O   0  0  0  0  0  0  0  0  0  0  0  0
    0.3167   -1.3165    0.0000 N   0  0  0  0  0  0  0  0  0  0  0  0
    6.0285   -2.6914    0.0000 O   0  0  0  0  0  0  0  0  0  0  0  0
    6.7367   -3.9287    0.0000 O   0  0  0  0  0  0  0  0  0  0  0  0
    2.4664   -1.6498    0.0000 C   0  0  0  0  0  0  0  0  0  0  0  0
    5.2536    0.1208    0.0000 C   0  0  0  0  0  0  0  0  0  0  0  0
    3.1663   -1.2124    0.0000 C   0  0  0  0  0  0  0  0  0  0  0  0
    1.7415   -1.2749    0.0000 C   0  0  0  0  0  0  0  0  0  0  0  0
   -0.3708   -2.5747    0.0000 O   0  0  0  0  0  0  0  0  0  0  0  0
    1.0416   -1.7123    0.0000 C   0  0  0  0  0  0  0  0  0  0  0  0
    7.2284   -0.1125    0.0000 O   0  0  0  0  0  0  0  0  0  0  0  0
   -1.1082   -1.3498    0.0000 N   0  0  0  0  0  0  0  0  0  0  0  0
    3.1288   -0.3875    0.0000 C   0  0  0  0  0  0  0  0  0  0  0  0
    3.8913   -1.5915    0.0000 C   0  0  0  0  0  0  0  0  0  0  0  0
    4.5537   -0.3250    0.0000 C   0  0  0  0  0  0  0  0  0  0  0  0
    6.0243   -3.5163    0.0000 C   0  0  0  0  0  0  0  0  0  0  0  0
    6.6409    1.0082    0.0000 O   0  0  0  0  0  0  0  0  0  0  0  0
    8.1658   -1.4623    0.0000 C   0  0  0  0  0  0  0  0  0  0  0  0
    8.1658   -3.1038    0.0000 C   0  0  0  0  0  0  0  0  0  0  0  0
    4.5912   -1.1499    0.0000 C   0  0  0  0  0  0  0  0  0  0  0  0
    3.8163    0.0583    0.0000 C   0  0  0  0  0  0  0  0  0  0  0  0
    2.5039   -2.4789    0.0000 C   0  0  0  0  0  0  0  0  0  0  0  0
    1.8040   -2.9247    0.0000 C   0  0  0  0  0  0  0  0  0  0  0  0
    1.0791   -2.5372    0.0000 C   0  0  0  0  0  0  0  0  0  0  0  0
   -1.8081   -1.7790    0.0000 C   0  0  0  0  0  0  0  0  0  0  0  0
   -2.5330   -1.3873    0.0000 C   0  0  0  0  0  0  0  0  0  0  0  0
    8.8782   -1.8748    0.0000 C   0  0  0  0  0  0  0  0  0  0  0  0
    8.8782   -2.6914    0.0000 C   0  0  0  0  0  0  0  0  0  0  0  0
   -3.2454   -1.8165    0.0000 C   0  0  0  0  0  0  0  0  0  0  0  0
  2  1  1  0  0  0  0
  3  4  1  0  0  0  0
  4  2  2  0  0  0  0
  5  1  1  0  0  0  0
  6  5  1  1  0  0  0
  7  6  1  0  0  0  0
  8 11  1  0  0  0  0
  9  1  2  0  0  0  0
 10  1  2  0  0  0  0
 11 19  1  0  0  0  0
 12  3  2  0  0  0  0
 13  3  2  0  0  0  0
 14 16  1  0  0  0  0
 15  6  1  0  0  0  0
 16 22  1  0  0  0  0
 17 14  2  0  0  0  0
 18  8  2  0  0  0  0
 19 17  1  0  0  0  0
 20  7  2  0  0  0  0
 21  8  1  0  0  0  0
 22 30  2  0  0  0  0
 23 29  1  0  0  0  0
 24 15  1  0  0  0  0
 25  3  1  0  0  0  0
 26  7  1  0  0  0  0
 27  2  1  0  0  0  0
 28  4  1  0  0  0  0
 29 24  2  0  0  0  0
 30 24  1  0  0  0  0
 31 14  1  0  0  0  0
 32 31  2  0  0  0  0
 33 32  1  0  0  0  0
 34 21  1  0  0  0  0
 35 34  1  0  0  0  0
 36 27  2  0  0  0  0
 37 36  1  0  0  0  0
 38 35  1  0  0  0  0
 28 37  2  0  0  0  0
 16 23  2  0  0  0  0
 33 19  2  0  0  0  0
M  END
>  <Mol Weight>
559.654

>  <Formula>
C26H29N3O7S2

>  <chembl_id>
CHEMBL11447

$$$$

  Mrv0541 06201412482D          

 41 43  0  0  1  0            999 V2000
   -1.6270   -0.7620    0.0000 C   0  0  0  0  0  0  0  0  0  0  0  0
   -0.9224   -0.3495    0.0000 C   0  0  0  0  0  0  0  0  0  0  0  0
   -0.2005   -0.7563    0.0000 N   0  0  0  0  0  0  0  0  0  0  0  0
   -0.9224   -1.9995    0.0000 C   0  0  0  0  0  0  0  0  0  0  0  0
   -1.6270   -1.5870    0.0000 C   0  0  0  0  0  0  0  0  0  0  0  0
    1.2261   -0.7563    0.0000 C   0  0  0  0  0  0  0  0  0  0  0  0
    0.5042   -0.3438    0.0000 C   0  0  2  0  0  0  0  0  0  0  0  0
   -2.3489   -0.3495    0.0000 C   0  0  0  0  0  0  0  0  0  0  0  0
   -0.9224   -2.8245    0.0000 C   0  0  0  0  0  0  0  0  0  0  0  0
   -0.2005   -3.2370    0.0000 C   0  0  0  0  0  0  0  0  0  0  0  0
   -3.7755   -0.3495    0.0000 C   0  0  0  0  0  0  0  0  0  0  0  0
   -3.0536   -0.7620    0.0000 S   0  0  0  0  0  0  0  0  0  0  0  0
    3.5980    2.6239    0.0000 C   0  0  0  0  0  0  0  0  0  0  0  0
    1.2261   -1.5813    0.0000 O   0  0  0  0  0  0  0  0  0  0  0  0
   -0.9224    0.4755    0.0000 O   0  0  0  0  0  0  0  0  0  0  0  0
    0.5042   -2.8245    0.0000 C   0  0  0  0  0  0  0  0  0  0  0  0
    0.5042    0.4813    0.0000 C   0  0  0  0  0  0  0  0  0  0  0  0
   -0.2005   -1.5813    0.0000 C   0  0  0  0  0  0  0  0  0  0  0  0
    1.9480   -0.3438    0.0000 O   0  0  0  0  0  0  0  0  0  0  0  0
    2.8073    2.8302    0.0000 O   0  0  0  0  0  0  0  0  0  0  0  0
   -3.7755    0.4755    0.0000 O   0  0  0  0  0  0  0  0  0  0  0  0
    3.8214    1.8333    0.0000 O   0  0  0  0  0  0  0  0  0  0  0  0
    0.5042   -1.9938    0.0000 C   0  0  0  0  0  0  0  0  0  0  0  0
    1.0886    1.0656    0.0000 C   0  0  0  0  0  0  0  0  0  0  0  0
    2.2402    2.2458    0.0000 C   0  0  0  0  0  0  0  0  0  0  0  0
   -0.2177   -4.0620    0.0000 F   0  0  0  0  0  0  0  0  0  0  0  0
    2.0167   -1.7933    0.0000 C   0  0  0  0  0  0  0  0  0  0  0  0
    1.2261   -3.2370    0.0000 F   0  0  0  0  0  0  0  0  0  0  0  0
    0.8652    1.8563    0.0000 C   0  0  0  0  0  0  0  0  0  0  0  0
    1.8792    0.8594    0.0000 C   0  0  0  0  0  0  0  0  0  0  0  0
    2.4636    1.4438    0.0000 C   0  0  0  0  0  0  0  0  0  0  0  0
    1.4323    2.4406    0.0000 C   0  0  0  0  0  0  0  0  0  0  0  0
    2.7214   -1.3750    0.0000 C   0  0  0  0  0  0  0  0  0  0  0  0
   -2.3489   -1.9995    0.0000 C   0  0  0  0  0  0  0  0  0  0  0  0
   -4.4974   -0.7620    0.0000 C   0  0  0  0  0  0  0  0  0  0  0  0
    4.1766    3.2083    0.0000 C   0  0  0  0  0  0  0  0  0  0  0  0
    3.3058   -1.9594    0.0000 C   0  0  0  0  0  0  0  0  0  0  0  0
    2.9448   -0.5902    0.0000 C   0  0  0  0  0  0  0  0  0  0  0  0
    3.7355   -0.3781    0.0000 C   0  0  0  0  0  0  0  0  0  0  0  0
    4.0964   -1.7417    0.0000 C   0  0  0  0  0  0  0  0  0  0  0  0
    4.3027   -0.9511    0.0000 C   0  0  0  0  0  0  0  0  0  0  0  0
  2  1  1  0  0  0  0
  3  2  1  0  0  0  0
  4  5  1  0  0  0  0
  5  1  1  0  0  0  0
  6  7  1  0  0  0  0
  7  3  1  0  0  0  0
  8  1  1  0  0  0  0
  9  4  2  0  0  0  0
 10  9  1  0  0  0  0
 11 12  1  0  0  0  0
 12  8  1  0  0  0  0
 13 20  1  0  0  0  0
 14  6  1  0  0  0  0
 15  2  2  0  0  0  0
 16 23  1  0  0  0  0
  7 17  1  1  0  0  0
 18  4  1  0  0  0  0
 19  6  2  0  0  0  0
 20 25  1  0  0  0  0
 21 11  2  0  0  0  0
 22 13  2  0  0  0  0
 23 18  2  0  0  0  0
 24 17  1  0  0  0  0
 25 31  2  0  0  0  0
 26 10  1  0  0  0  0
 27 14  1  0  0  0  0
 28 16  1  0  0  0  0
 29 24  1  0  0  0  0
 30 24  2  0  0  0  0
 31 30  1  0  0  0  0
 32 29  2  0  0  0  0
 33 27  1  0  0  0  0
 34  5  1  0  0  0  0
 35 11  1  0  0  0  0
 36 13  1  0  0  0  0
 37 33  2  0  0  0  0
 38 33  1  0  0  0  0
 39 38  2  0  0  0  0
 40 37  1  0  0  0  0
 41 39  1  0  0  0  0
 10 16  2  0  0  0  0
 32 25  1  0  0  0  0
 41 40  2  0  0  0  0
M  END
>  <Mol Weight>
583.643

>  <Formula>
C31H31F2NO6S

>  <chembl_id>
CHEMBL11494

$$$$

  Mrv0541 06201412482D          

 41 43  0  0  1  0            999 V2000
    4.1842   -4.2694    0.0000 S   0  0  0  0  0  0  0  0  0  0  0  0
    9.7553   -7.2824    0.0000 C   0  0  0  0  0  0  0  0  0  0  0  0
    6.1738   -5.2415    0.0000 C   0  0  0  0  0  0  0  0  0  0  0  0
    5.4575   -4.8322    0.0000 C   0  0  1  0  0  0  0  0  0  0  0  0
    4.7470   -5.2415    0.0000 N   0  0  0  0  0  0  0  0  0  0  0  0
    6.1796   -6.0602    0.0000 N   0  0  0  0  0  0  0  0  0  0  0  0
    9.7553   -6.4524    0.0000 C   0  0  0  0  0  0  0  0  0  0  0  0
   10.4716   -7.6917    0.0000 N   0  0  0  0  0  0  0  0  0  0  0  0
    9.0448   -6.0431    0.0000 C   0  0  0  0  0  0  0  0  0  0  0  0
    6.8959   -6.4808    0.0000 C   0  0  2  0  0  0  0  0  0  0  0  0
    8.3285   -6.4695    0.0000 C   0  0  0  0  0  0  0  0  0  0  0  0
    4.7470   -3.2916    0.0000 O   0  0  0  0  0  0  0  0  0  0  0  0
    3.0585   -4.2694    0.0000 O   0  0  0  0  0  0  0  0  0  0  0  0
    7.6064   -6.0602    0.0000 C   0  0  1  0  0  0  0  0  0  0  0  0
    6.1625   -2.7686    0.0000 C   0  0  0  0  0  0  0  0  0  0  0  0
    5.4462   -2.3593    0.0000 N   0  0  0  0  0  0  0  0  0  0  0  0
    9.0448   -7.6974    0.0000 O   0  0  0  0  0  0  0  0  0  0  0  0
    5.4575   -4.0079    0.0000 C   0  0  0  0  0  0  0  0  0  0  0  0
    6.1625   -3.5872    0.0000 S   0  0  0  0  0  0  0  0  0  0  0  0
    6.8788   -4.8322    0.0000 O   0  0  0  0  0  0  0  0  0  0  0  0
    6.9072   -7.3052    0.0000 C   0  0  0  0  0  0  0  0  0  0  0  0
   11.1766   -7.2824    0.0000 C   0  0  0  0  0  0  0  0  0  0  0  0
    3.3826   -3.4678    0.0000 C   0  0  0  0  0  0  0  0  0  0  0  0
    6.1966   -7.7258    0.0000 C   0  0  0  0  0  0  0  0  0  0  0  0
    7.5951   -5.2358    0.0000 O   0  0  0  0  0  0  0  0  0  0  0  0
    9.0448   -5.2245    0.0000 C   0  0  0  0  0  0  0  0  0  0  0  0
   10.4716   -6.0431    0.0000 C   0  0  0  0  0  0  0  0  0  0  0  0
    5.4405   -1.5407    0.0000 C   0  0  0  0  0  0  0  0  0  0  0  0
    6.8618   -2.3536    0.0000 C   0  0  0  0  0  0  0  0  0  0  0  0
   11.5972   -7.9987    0.0000 C   0  0  0  0  0  0  0  0  0  0  0  0
   11.9042   -6.8618    0.0000 C   0  0  0  0  0  0  0  0  0  0  0  0
   10.7673   -6.5548    0.0000 C   0  0  0  0  0  0  0  0  0  0  0  0
    5.4803   -7.3165    0.0000 C   0  0  0  0  0  0  0  0  0  0  0  0
    6.2137   -8.5444    0.0000 C   0  0  0  0  0  0  0  0  0  0  0  0
    9.7553   -4.8094    0.0000 C   0  0  0  0  0  0  0  0  0  0  0  0
   10.4716   -5.2188    0.0000 C   0  0  0  0  0  0  0  0  0  0  0  0
    6.1454   -1.1313    0.0000 C   0  0  0  0  0  0  0  0  0  0  0  0
    6.8618   -1.5349    0.0000 C   0  0  0  0  0  0  0  0  0  0  0  0
    5.5087   -8.9595    0.0000 C   0  0  0  0  0  0  0  0  0  0  0  0
    4.7753   -7.7315    0.0000 C   0  0  0  0  0  0  0  0  0  0  0  0
    4.7811   -8.5615    0.0000 C   0  0  0  0  0  0  0  0  0  0  0  0
  2  7  1  0  0  0  0
  3  4  1  0  0  0  0
  4  5  1  0  0  0  0
  5  1  1  0  0  0  0
  6  3  1  0  0  0  0
  7  9  1  0  0  0  0
  8  2  1  0  0  0  0
  9 11  1  0  0  0  0
 10  6  1  0  0  0  0
 11 14  1  0  0  0  0
 12  1  2  0  0  0  0
 13  1  2  0  0  0  0
 14 10  1  0  0  0  0
 15 19  1  0  0  0  0
 16 15  2  0  0  0  0
 17  2  2  0  0  0  0
  4 18  1  1  0  0  0
 19 18  1  0  0  0  0
 20  3  2  0  0  0  0
 10 21  1  6  0  0  0
 22  8  1  0  0  0  0
 23  1  1  0  0  0  0
 24 21  1  0  0  0  0
 14 25  1  6  0  0  0
 26  9  2  0  0  0  0
 27  7  2  0  0  0  0
 28 16  1  0  0  0  0
 29 15  1  0  0  0  0
 30 22  1  0  0  0  0
 31 22  1  0  0  0  0
 32 22  1  0  0  0  0
 33 24  2  0  0  0  0
 34 24  1  0  0  0  0
 35 26  1  0  0  0  0
 36 35  2  0  0  0  0
 37 38  1  0  0  0  0
 38 29  2  0  0  0  0
 39 34  2  0  0  0  0
 40 33  1  0  0  0  0
 41 39  1  0  0  0  0
 28 37  2  0  0  0  0
 40 41  2  0  0  0  0
 27 36  1  0  0  0  0
M  END
>  <Mol Weight>
598.777

>  <Formula>
C30H38N4O5S2

>  <chembl_id>
CHEMBL11424

$$$$

  Mrv0541 06201412482D          

 32 32  0  0  0  0            999 V2000
    2.8188   -3.5556    0.0000 C   0  0  0  0  0  0  0  0  0  0  0  0
    3.5307   -4.8055    0.0000 C   0  0  0  0  0  0  0  0  0  0  0  0
    8.1955   -1.5812    0.0000 C   0  0  0  0  0  0  0  0  0  0  0  0
    7.4877   -1.9910    0.0000 C   0  0  0  0  0  0  0  0  0  0  0  0
    3.5307   -3.9736    0.0000 C   0  0  0  0  0  0  0  0  0  0  0  0
    2.1027   -3.9736    0.0000 C   0  0  0  0  0  0  0  0  0  0  0  0
    2.1027   -4.8055    0.0000 C   0  0  0  0  0  0  0  0  0  0  0  0
    2.8188   -5.2195    0.0000 C   0  0  0  0  0  0  0  0  0  0  0  0
    8.1955   -0.7616    0.0000 O   0  0  0  0  0  0  0  0  0  0  0  0
    7.4877   -2.8105    0.0000 O   0  0  0  0  0  0  0  0  0  0  0  0
    4.2385   -5.2195    0.0000 C   0  0  0  0  0  0  0  0  0  0  0  0
    2.8105   -2.7360    0.0000 Br  0  0  0  0  0  0  0  0  0  0  0  0
    5.6789   -5.2071    0.0000 N   0  0  0  0  0  0  0  0  0  0  0  0
    6.7717   -1.5812    0.0000 O   0  0  0  0  0  0  0  0  0  0  0  0
    8.9033   -1.9910    0.0000 O   0  0  0  0  0  0  0  0  0  0  0  0
    4.2385   -3.5514    0.0000 O   0  0  0  0  0  0  0  0  0  0  0  0
    4.9670   -4.7973    0.0000 C   0  0  0  0  0  0  0  0  0  0  0  0
    1.3908   -5.2071    0.0000 Br  0  0  0  0  0  0  0  0  0  0  0  0
    4.2261   -2.7236    0.0000 C   0  0  0  0  0  0  0  0  0  0  0  0
    4.9463   -1.4818    0.0000 C   0  0  0  0  0  0  0  0  0  0  0  0
    4.9463   -2.3138    0.0000 C   0  0  0  0  0  0  0  0  0  0  0  0
    6.3950   -4.7973    0.0000 C   0  0  0  0  0  0  0  0  0  0  0  0
    5.6789   -6.0390    0.0000 C   0  0  0  0  0  0  0  0  0  0  0  0
    4.2261   -1.0845    0.0000 C   0  0  0  0  0  0  0  0  0  0  0  0
    5.6541   -1.0721    0.0000 C   0  0  0  0  0  0  0  0  0  0  0  0
    7.1069   -5.1656    0.0000 C   0  0  0  0  0  0  0  0  0  0  0  0
    6.3950   -6.4488    0.0000 C   0  0  0  0  0  0  0  0  0  0  0  0
    6.3950   -7.2766    0.0000 C   0  0  0  0  0  0  0  0  0  0  0  0
    7.8147   -4.7476    0.0000 C   0  0  0  0  0  0  0  0  0  0  0  0
    5.6541   -0.2483    0.0000 C   0  0  0  0  0  0  0  0  0  0  0  0
    4.2261   -0.2649    0.0000 C   0  0  0  0  0  0  0  0  0  0  0  0
    4.9421    0.1697    0.0000 C   0  0  0  0  0  0  0  0  0  0  0  0
  2  5  1  0  0  0  0
  4  3  1  0  0  0  0
  5  1  2  0  0  0  0
  6  1  1  0  0  0  0
  7  6  2  0  0  0  0
  8  7  1  0  0  0  0
  9  3  2  0  0  0  0
 10  4  2  0  0  0  0
 11  2  1  0  0  0  0
 12  1  1  0  0  0  0
 13 17  1  0  0  0  0
 14  4  1  0  0  0  0
 15  3  1  0  0  0  0
 16  5  1  0  0  0  0
 17 11  1  0  0  0  0
 18  7  1  0  0  0  0
 19 16  1  0  0  0  0
 20 21  1  0  0  0  0
 21 19  1  0  0  0  0
 22 13  1  0  0  0  0
 23 13  1  0  0  0  0
 24 20  1  0  0  0  0
 25 20  2  0  0  0  0
 26 22  1  0  0  0  0
 27 23  1  0  0  0  0
 28 27  1  0  0  0  0
 29 26  1  0  0  0  0
 30 25  1  0  0  0  0
 31 24  2  0  0  0  0
 32 30  2  0  0  0  0
  8  2  2  0  0  0  0
 32 31  1  0  0  0  0
M  END
>  <Mol Weight>
573.315

>  <Formula>
C24H31Br2NO5

>  <chembl_id>
CHEMBL11590

$$$$

  Mrv0541 06201412482D          

 41 45  0  0  0  0            999 V2000
   -0.2832   -8.5702    0.0000 N   0  0  0  0  0  0  0  0  0  0  0  0
    0.2998   -7.9831    0.0000 C   0  0  0  0  0  0  0  0  0  0  0  0
   -0.2873   -7.4002    0.0000 C   0  0  0  0  0  0  0  0  0  0  0  0
   -0.8702   -7.9872    0.0000 C   0  0  0  0  0  0  0  0  0  0  0  0
   -0.8785   -6.8113    0.0000 O   0  0  0  0  0  0  0  0  0  0  0  0
    0.2915   -6.8113    0.0000 C   0  0  0  0  0  0  0  0  0  0  0  0
    1.1181   -6.8219    0.0000 C   0  0  0  0  0  0  0  0  0  0  0  0
    1.5377   -6.1116    0.0000 C   0  0  0  0  0  0  0  0  0  0  0  0
    1.1315   -5.3917    0.0000 C   0  0  0  0  0  0  0  0  0  0  0  0
    0.3016   -5.3865    0.0000 C   0  0  0  0  0  0  0  0  0  0  0  0
   -0.1142   -6.0974    0.0000 C   0  0  0  0  0  0  0  0  0  0  0  0
    1.5495   -4.6812    0.0000 O   0  0  0  0  0  0  0  0  0  0  0  0
    2.3738   -4.6879    0.0000 C   0  0  0  0  0  0  0  0  0  0  0  0
   -0.2802   -9.3945    0.0000 C   0  0  0  0  0  0  0  0  0  0  0  0
   -0.9926   -9.8092    0.0000 C   0  0  0  0  0  0  0  0  0  0  0  0
   -0.9897  -10.6335    0.0000 O   0  0  0  0  0  0  0  0  0  0  0  0
   -1.7022  -11.0483    0.0000 C   0  0  0  0  0  0  0  0  0  0  0  0
   -2.1191  -10.3294    0.0000 C   0  0  0  0  0  0  0  0  0  0  0  0
   -1.2948  -11.7575    0.0000 C   0  0  0  0  0  0  0  0  0  0  0  0
   -2.4078  -11.4745    0.0000 C   0  0  0  0  0  0  0  0  0  0  0  0
   -1.7022   -9.6093    0.0000 C   0  0  0  0  0  0  0  0  0  0  0  0
   -2.1184   -8.8908    0.0000 C   0  0  0  0  0  0  0  0  0  0  0  0
   -2.9505   -8.8921    0.0000 C   0  0  0  0  0  0  0  0  0  0  0  0
   -3.3644   -9.6177    0.0000 C   0  0  0  0  0  0  0  0  0  0  0  0
   -2.9456  -10.3332    0.0000 C   0  0  0  0  0  0  0  0  0  0  0  0
   -1.7083  -12.4643    0.0000 C   0  0  0  0  0  0  0  0  0  0  0  0
   -1.3016  -13.1730    0.0000 C   0  0  0  0  0  0  0  0  0  0  0  0
   -0.4829  -13.1752    0.0000 C   0  0  0  0  0  0  0  0  0  0  0  0
   -0.0725  -12.4629    0.0000 C   0  0  0  0  0  0  0  0  0  0  0  0
   -0.4815  -11.7572    0.0000 C   0  0  0  0  0  0  0  0  0  0  0  0
   -3.1298  -11.0747    0.0000 C   0  0  0  0  0  0  0  0  0  0  0  0
   -3.8350  -11.5003    0.0000 C   0  0  0  0  0  0  0  0  0  0  0  0
   -3.8191  -12.3253    0.0000 C   0  0  0  0  0  0  0  0  0  0  0  0
   -3.0922  -12.7230    0.0000 C   0  0  0  0  0  0  0  0  0  0  0  0
   -2.3900  -12.2952    0.0000 C   0  0  0  0  0  0  0  0  0  0  0  0
   -3.3651   -8.1796    0.0000 O   0  0  0  0  0  0  0  0  0  0  0  0
   -2.9553   -7.4643    0.0000 C   0  0  0  0  0  0  0  0  0  0  0  0
   -4.5242  -12.7525    0.0000 O   0  0  0  0  0  0  0  0  0  0  0  0
   -5.2467  -12.3554    0.0000 C   0  0  0  0  0  0  0  0  0  0  0  0
   -0.0713  -13.8895    0.0000 O   0  0  0  0  0  0  0  0  0  0  0  0
   -0.4842  -14.6030    0.0000 C   0  0  0  0  0  0  0  0  0  0  0  0
 17 20  1  0  0  0  0
  9 10  1  0  0  0  0
 18 21  2  0  0  0  0
  3  5  1  0  0  0  0
 21 22  1  0  0  0  0
 10 11  2  0  0  0  0
 22 23  2  0  0  0  0
 11  6  1  0  0  0  0
 23 24  1  0  0  0  0
  1  2  1  0  0  0  0
 24 25  2  0  0  0  0
 25 18  1  0  0  0  0
  9 12  1  0  0  0  0
 19 26  2  0  0  0  0
  3  6  1  0  0  0  0
 26 27  1  0  0  0  0
 12 13  1  0  0  0  0
 27 28  2  0  0  0  0
  2  3  1  0  0  0  0
 28 29  1  0  0  0  0
  1 14  1  0  0  0  0
 29 30  2  0  0  0  0
 30 19  1  0  0  0  0
  6  7  2  0  0  0  0
 20 31  2  0  0  0  0
 14 15  1  0  0  0  0
 31 32  1  0  0  0  0
  3  4  1  0  0  0  0
 32 33  2  0  0  0  0
 15 16  1  0  0  0  0
 33 34  1  0  0  0  0
  7  8  1  0  0  0  0
 34 35  2  0  0  0  0
 35 20  1  0  0  0  0
 16 17  1  0  0  0  0
 23 36  1  0  0  0  0
  4  1  1  0  0  0  0
 36 37  1  0  0  0  0
 17 18  1  0  0  0  0
 33 38  1  0  0  0  0
  8  9  2  0  0  0  0
 38 39  1  0  0  0  0
 17 19  1  0  0  0  0
 28 40  1  0  0  0  0
 40 41  1  0  0  0  0
M  END
>  <Mol Weight>
555.6607

>  <Formula>
C34H37NO6

>  <chembl_id>
CHEMBL1163367

$$$$

  Mrv0541 06201412482D          

 39 41  0  0  0  0            999 V2000
    6.6617   -4.6662    0.0000 N   0  0  0  0  0  0  0  0  0  0  0  0
    7.6866   -0.7541    0.0000 C   0  0  0  0  0  0  0  0  0  0  0  0
    6.9742   -1.1666    0.0000 C   0  0  0  0  0  0  0  0  0  0  0  0
    7.3659   -4.2537    0.0000 C   0  0  0  0  0  0  0  0  0  0  0  0
    5.2494   -5.4911    0.0000 N   0  0  0  0  0  0  0  0  0  0  0  0
    2.3789   -5.5036    0.0000 C   0  0  0  0  0  0  0  0  0  0  0  0
    2.3789   -4.6662    0.0000 C   0  0  0  0  0  0  0  0  0  0  0  0
    6.6617   -5.4911    0.0000 C   0  0  0  0  0  0  0  0  0  0  0  0
    5.9535   -4.2537    0.0000 C   0  0  0  0  0  0  0  0  0  0  0  0
    1.6665   -5.9243    0.0000 C   0  0  0  0  0  0  0  0  0  0  0  0
    7.6866    0.0708    0.0000 O   0  0  0  0  0  0  0  0  0  0  0  0
    6.9742   -1.9915    0.0000 O   0  0  0  0  0  0  0  0  0  0  0  0
    8.0783   -4.6662    0.0000 C   0  0  0  0  0  0  0  0  0  0  0  0
    1.6665   -4.2537    0.0000 C   0  0  0  0  0  0  0  0  0  0  0  0
    5.9535   -5.9035    0.0000 C   0  0  0  0  0  0  0  0  0  0  0  0
    5.2369   -4.6662    0.0000 C   0  0  0  0  0  0  0  0  0  0  0  0
    0.9499   -5.5036    0.0000 C   0  0  0  0  0  0  0  0  0  0  0  0
    6.2535   -0.7541    0.0000 O   0  0  0  0  0  0  0  0  0  0  0  0
    8.3990   -1.1666    0.0000 O   0  0  0  0  0  0  0  0  0  0  0  0
    0.9499   -4.6662    0.0000 C   0  0  0  0  0  0  0  0  0  0  0  0
    3.0996   -4.2495    0.0000 O   0  0  0  0  0  0  0  0  0  0  0  0
    0.2292   -5.9035    0.0000 Cl  0  0  0  0  0  0  0  0  0  0  0  0
    8.0783   -5.4911    0.0000 O   0  0  0  0  0  0  0  0  0  0  0  0
    4.5412   -5.9035    0.0000 C   0  0  0  0  0  0  0  0  0  0  0  0
    3.0913   -3.4163    0.0000 C   0  0  0  0  0  0  0  0  0  0  0  0
    3.8038   -2.1540    0.0000 C   0  0  0  0  0  0  0  0  0  0  0  0
    3.0996   -5.9243    0.0000 C   0  0  0  0  0  0  0  0  0  0  0  0
    3.8163   -5.4911    0.0000 C   0  0  0  0  0  0  0  0  0  0  0  0
    7.3659   -3.4371    0.0000 C   0  0  0  0  0  0  0  0  0  0  0  0
    8.7907   -4.2537    0.0000 C   0  0  0  0  0  0  0  0  0  0  0  0
    3.8163   -2.9914    0.0000 C   0  0  0  0  0  0  0  0  0  0  0  0
    8.7907   -5.9035    0.0000 C   0  0  0  0  0  0  0  0  0  0  0  0
    4.5245   -1.7540    0.0000 C   0  0  0  0  0  0  0  0  0  0  0  0
    3.0788   -1.7623    0.0000 C   0  0  0  0  0  0  0  0  0  0  0  0
    8.0783   -3.0289    0.0000 C   0  0  0  0  0  0  0  0  0  0  0  0
    8.7907   -3.4371    0.0000 C   0  0  0  0  0  0  0  0  0  0  0  0
    3.0788   -0.9374    0.0000 C   0  0  0  0  0  0  0  0  0  0  0  0
    4.5245   -0.9166    0.0000 C   0  0  0  0  0  0  0  0  0  0  0  0
    3.8038   -0.5041    0.0000 C   0  0  0  0  0  0  0  0  0  0  0  0
  3  2  1  0  0  0  0
  4  1  1  0  0  0  0
  5 16  1  0  0  0  0
  6 27  1  0  0  0  0
  7  6  1  0  0  0  0
  8  1  1  0  0  0  0
  9  1  1  0  0  0  0
 10  6  2  0  0  0  0
 11  2  2  0  0  0  0
 12  3  2  0  0  0  0
 13  4  2  0  0  0  0
 14  7  2  0  0  0  0
 15  8  1  0  0  0  0
 16  9  1  0  0  0  0
 17 10  1  0  0  0  0
 18  3  1  0  0  0  0
 19  2  1  0  0  0  0
 20 14  1  0  0  0  0
 21  7  1  0  0  0  0
 22 17  1  0  0  0  0
 23 13  1  0  0  0  0
 24  5  1  0  0  0  0
 25 21  1  0  0  0  0
 26 31  1  0  0  0  0
 27 28  1  0  0  0  0
 28 24  1  0  0  0  0
 29  4  1  0  0  0  0
 30 13  1  0  0  0  0
 31 25  1  0  0  0  0
 32 23  1  0  0  0  0
 33 26  2  0  0  0  0
 34 26  1  0  0  0  0
 35 29  2  0  0  0  0
 36 35  1  0  0  0  0
 37 34  2  0  0  0  0
 38 33  1  0  0  0  0
 39 37  1  0  0  0  0
  5 15  1  0  0  0  0
 36 30  2  0  0  0  0
 17 20  2  0  0  0  0
 38 39  2  0  0  0  0
M  END
>  <Mol Weight>
555.062

>  <Formula>
C30H35ClN2O6

>  <chembl_id>
CHEMBL11380

$$$$

  Mrv0541 06201412482D          

 42 44  0  0  0  0            999 V2000
    8.4647   -6.8976    0.0000 N   0  0  0  0  0  0  0  0  0  0  0  0
   15.5968   -6.9033    0.0000 C   0  0  0  0  0  0  0  0  0  0  0  0
    9.1796   -6.4858    0.0000 C   0  0  0  0  0  0  0  0  0  0  0  0
    8.4647   -7.7212    0.0000 C   0  0  0  0  0  0  0  0  0  0  0  0
    9.8831   -6.0626    0.0000 N   0  0  0  0  0  0  0  0  0  0  0  0
   12.0336   -8.1387    0.0000 C   0  0  0  0  0  0  0  0  0  0  0  0
    1.3383   -7.7212    0.0000 N   0  0  0  0  0  0  0  0  0  0  0  0
   14.8819   -6.4915    0.0000 N   0  0  0  0  0  0  0  0  0  0  0  0
   16.3060   -6.4915    0.0000 O   0  0  0  0  0  0  0  0  0  0  0  0
   12.7371   -7.7269    0.0000 C   0  0  0  0  0  0  0  0  0  0  0  0
   15.5968   -7.7269    0.0000 O   0  0  0  0  0  0  0  0  0  0  0  0
   12.0336   -8.9623    0.0000 O   0  0  0  0  0  0  0  0  0  0  0  0
    2.0476   -8.1330    0.0000 C   0  0  0  0  0  0  0  0  0  0  0  0
   17.0267   -6.9033    0.0000 C   0  0  0  0  0  0  0  0  0  0  0  0
    7.7441   -8.1330    0.0000 N   0  0  0  0  0  0  0  0  0  0  0  0
    9.1796   -8.1330    0.0000 N   0  0  0  0  0  0  0  0  0  0  0  0
    2.7511   -7.7212    0.0000 C   0  0  0  0  0  0  0  0  0  0  0  0
   11.3130   -7.7269    0.0000 N   0  0  0  0  0  0  0  0  0  0  0  0
   12.7371   -6.9033    0.0000 C   0  0  0  0  0  0  0  0  0  0  0  0
   13.4578   -8.1387    0.0000 C   0  0  0  0  0  0  0  0  0  0  0  0
   14.1726   -6.9033    0.0000 C   0  0  0  0  0  0  0  0  0  0  0  0
    3.4717   -8.1330    0.0000 C   0  0  0  0  0  0  0  0  0  0  0  0
   14.1726   -7.7269    0.0000 C   0  0  0  0  0  0  0  0  0  0  0  0
   13.4520   -6.4915    0.0000 C   0  0  0  0  0  0  0  0  0  0  0  0
    4.1924   -7.7212    0.0000 C   0  0  0  0  0  0  0  0  0  0  0  0
    6.3200   -8.1330    0.0000 C   0  0  0  0  0  0  0  0  0  0  0  0
    4.8958   -8.1330    0.0000 O   0  0  0  0  0  0  0  0  0  0  0  0
    1.3383   -6.8862    0.0000 C   0  0  0  0  0  0  0  0  0  0  0  0
    0.6235   -8.1330    0.0000 C   0  0  0  0  0  0  0  0  0  0  0  0
    3.4717   -6.4858    0.0000 C   0  0  0  0  0  0  0  0  0  0  0  0
    7.0406   -7.7212    0.0000 C   0  0  0  0  0  0  0  0  0  0  0  0
    2.7511   -6.8976    0.0000 C   0  0  0  0  0  0  0  0  0  0  0  0
    5.6107   -7.7212    0.0000 C   0  0  0  0  0  0  0  0  0  0  0  0
    9.8889   -7.7212    0.0000 C   0  0  0  0  0  0  0  0  0  0  0  0
   17.0267   -7.7269    0.0000 C   0  0  0  0  0  0  0  0  0  0  0  0
   17.7301   -7.3151    0.0000 C   0  0  0  0  0  0  0  0  0  0  0  0
   17.7301   -6.4915    0.0000 C   0  0  0  0  0  0  0  0  0  0  0  0
   10.6037   -8.1330    0.0000 C   0  0  0  0  0  0  0  0  0  0  0  0
    4.1924   -6.8976    0.0000 C   0  0  0  0  0  0  0  0  0  0  0  0
   -0.0972   -7.7098    0.0000 C   0  0  0  0  0  0  0  0  0  0  0  0
    0.6235   -6.4744    0.0000 C   0  0  0  0  0  0  0  0  0  0  0  0
   -0.0972   -6.8862    0.0000 C   0  0  0  0  0  0  0  0  0  0  0  0
  2  8  1  0  0  0  0
  3  1  1  0  0  0  0
  4  1  1  0  0  0  0
  5  3  3  0  0  0  0
  6 18  1  0  0  0  0
  7 13  1  0  0  0  0
  8 21  1  0  0  0  0
  9  2  1  0  0  0  0
 10  6  1  0  0  0  0
 11  2  2  0  0  0  0
 12  6  2  0  0  0  0
 13 17  1  0  0  0  0
 14  9  1  0  0  0  0
 15  4  1  0  0  0  0
 16  4  2  0  0  0  0
 17 22  2  0  0  0  0
 18 38  1  0  0  0  0
 19 10  2  0  0  0  0
 20 10  1  0  0  0  0
 21 23  1  0  0  0  0
 22 25  1  0  0  0  0
 23 20  2  0  0  0  0
 24 19  1  0  0  0  0
 25 27  1  0  0  0  0
 26 31  1  0  0  0  0
 27 33  1  0  0  0  0
 28  7  1  0  0  0  0
 29  7  1  0  0  0  0
 30 39  1  0  0  0  0
 31 15  1  0  0  0  0
 32 30  2  0  0  0  0
 33 26  1  0  0  0  0
 34 16  1  0  0  0  0
 35 14  1  0  0  0  0
 36 14  1  0  0  0  0
 37 14  1  0  0  0  0
 38 34  1  0  0  0  0
 39 25  2  0  0  0  0
 40 29  1  0  0  0  0
 41 28  1  0  0  0  0
 42 40  1  0  0  0  0
 24 21  2  0  0  0  0
 32 17  1  0  0  0  0
 41 42  1  0  0  0  0
M  END
>  <Mol Weight>
577.7176

>  <Formula>
C31H43N7O4

>  <chembl_id>
CHEMBL11600

$$$$

  Mrv0541 06201412482D          

 41 43  0  0  0  0            999 V2000
    2.3281   -9.7372    0.0000 C   0  0  0  0  0  0  0  0  0  0  0  0
    1.9283  -10.4577    0.0000 C   0  0  0  0  0  0  0  0  0  0  0  0
    3.1361   -9.8955    0.0000 N   0  0  0  0  0  0  0  0  0  0  0  0
    3.2402  -10.7118    0.0000 C   0  0  0  0  0  0  0  0  0  0  0  0
    2.4906  -11.0616    0.0000 N   0  0  0  0  0  0  0  0  0  0  0  0
    8.2712  -11.7946    0.0000 C   0  0  0  0  0  0  0  0  0  0  0  0
    7.5715  -12.2319    0.0000 N   0  0  0  0  0  0  0  0  0  0  0  0
    1.9783   -8.9876    0.0000 C   0  0  0  0  0  0  0  0  0  0  0  0
    1.1120  -10.5619    0.0000 C   0  0  0  0  0  0  0  0  0  0  0  0
    8.2462  -10.9742    0.0000 N   0  0  0  0  0  0  0  0  0  0  0  0
    9.0001  -12.1861    0.0000 O   0  0  0  0  0  0  0  0  0  0  0  0
    3.9649  -11.1074    0.0000 S   0  0  0  0  0  0  0  0  0  0  0  0
    1.1620   -8.9251    0.0000 C   0  0  0  0  0  0  0  0  0  0  0  0
    2.4531   -8.3129    0.0000 C   0  0  0  0  0  0  0  0  0  0  0  0
    0.6164   -9.8997    0.0000 C   0  0  0  0  0  0  0  0  0  0  0  0
    0.7913  -11.3115    0.0000 C   0  0  0  0  0  0  0  0  0  0  0  0
   -0.5206  -10.7618    0.0000 C   0  0  0  0  0  0  0  0  0  0  0  0
    1.2786   -7.4966    0.0000 C   0  0  0  0  0  0  0  0  0  0  0  0
   -0.1999   -9.9996    0.0000 C   0  0  0  0  0  0  0  0  0  0  0  0
    0.8038   -8.1754    0.0000 C   0  0  0  0  0  0  0  0  0  0  0  0
   -0.0208  -11.4240    0.0000 C   0  0  0  0  0  0  0  0  0  0  0  0
    2.1032   -7.5715    0.0000 C   0  0  0  0  0  0  0  0  0  0  0  0
    7.5965  -13.0565    0.0000 C   0  0  0  0  0  0  0  0  0  0  0  0
    0.9288   -6.7511    0.0000 O   0  0  0  0  0  0  0  0  0  0  0  0
   -1.3452  -10.8617    0.0000 O   0  0  0  0  0  0  0  0  0  0  0  0
   12.5235  -10.8367    0.0000 O   0  0  0  0  0  0  0  0  0  0  0  0
   10.3744  -10.4869    0.0000 O   0  0  0  0  0  0  0  0  0  0  0  0
    8.9459  -10.5369    0.0000 C   0  0  0  0  0  0  0  0  0  0  0  0
    7.5215  -10.5826    0.0000 C   0  0  0  0  0  0  0  0  0  0  0  0
    4.6646  -10.6743    0.0000 C   0  0  0  0  0  0  0  0  0  0  0  0
    9.6748  -10.9242    0.0000 C   0  0  0  0  0  0  0  0  0  0  0  0
   11.7988  -10.4494    0.0000 C   0  0  0  0  0  0  0  0  0  0  0  0
   11.0991  -10.8825    0.0000 C   0  0  0  0  0  0  0  0  0  0  0  0
   -1.8450  -10.2078    0.0000 C   0  0  0  0  0  0  0  0  0  0  0  0
    0.1042   -6.6844    0.0000 C   0  0  0  0  0  0  0  0  0  0  0  0
   13.2314  -10.3994    0.0000 C   0  0  0  0  0  0  0  0  0  0  0  0
    6.8136  -11.0116    0.0000 C   0  0  0  0  0  0  0  0  0  0  0  0
    6.8968  -13.4855    0.0000 C   0  0  0  0  0  0  0  0  0  0  0  0
    8.3254  -13.4438    0.0000 C   0  0  0  0  0  0  0  0  0  0  0  0
    5.3892  -11.0616    0.0000 C   0  0  0  0  0  0  0  0  0  0  0  0
    6.0889  -10.6243    0.0000 C   0  0  0  0  0  0  0  0  0  0  0  0
  2  1  2  0  0  0  0
  3  1  1  0  0  0  0
  4  3  2  0  0  0  0
  5  2  1  0  0  0  0
  6 10  1  0  0  0  0
  7  6  1  0  0  0  0
  8  1  1  0  0  0  0
  9  2  1  0  0  0  0
 10 29  1  0  0  0  0
 11  6  2  0  0  0  0
 12  4  1  0  0  0  0
 13  8  1  0  0  0  0
 14  8  2  0  0  0  0
 15  9  2  0  0  0  0
 16  9  1  0  0  0  0
 17 21  1  0  0  0  0
 18 22  2  0  0  0  0
 19 15  1  0  0  0  0
 20 13  2  0  0  0  0
 21 16  2  0  0  0  0
 22 14  1  0  0  0  0
 23  7  1  0  0  0  0
 24 18  1  0  0  0  0
 25 17  1  0  0  0  0
 26 32  1  0  0  0  0
 27 31  1  0  0  0  0
 28 10  1  0  0  0  0
 29 37  1  0  0  0  0
 30 12  1  0  0  0  0
 31 28  1  0  0  0  0
 32 33  1  0  0  0  0
 33 27  1  0  0  0  0
 34 25  1  0  0  0  0
 35 24  1  0  0  0  0
 36 26  1  0  0  0  0
 37 41  1  0  0  0  0
 38 23  1  0  0  0  0
 39 23  1  0  0  0  0
 40 30  1  0  0  0  0
 41 40  1  0  0  0  0
  4  5  1  0  0  0  0
 18 20  1  0  0  0  0
 17 19  2  0  0  0  0
M  END
>  <Mol Weight>
584.77

>  <Formula>
C31H44N4O5S

>  <chembl_id>
CHEMBL11316

$$$$

  Mrv0541 06201412482D          

 41 43  0  0  0  0            999 V2000
    6.4617   -4.7597    0.0000 N   0  0  0  0  0  0  0  0  0  0  0  0
    5.7483   -5.1727    0.0000 C   0  0  0  0  0  0  0  0  0  0  0  0
    6.4491   -3.9337    0.0000 C   0  0  0  0  0  0  0  0  0  0  0  0
    5.0350   -4.7597    0.0000 C   0  0  0  0  0  0  0  0  0  0  0  0
    5.7358   -3.5208    0.0000 N   0  0  0  0  0  0  0  0  0  0  0  0
   10.0283   -5.1602    0.0000 C   0  0  0  0  0  0  0  0  0  0  0  0
   10.7416   -4.7472    0.0000 C   0  0  0  0  0  0  0  0  0  0  0  0
    5.0225   -3.9421    0.0000 C   0  0  0  0  0  0  0  0  0  0  0  0
    9.3650   -4.8723    0.0000 C   0  0  0  0  0  0  0  0  0  0  0  0
    4.3217   -5.1810    0.0000 N   0  0  0  0  0  0  0  0  0  0  0  0
    3.5959   -4.7722    0.0000 C   0  0  0  0  0  0  0  0  0  0  0  0
    7.1750   -5.1727    0.0000 C   0  0  0  0  0  0  0  0  0  0  0  0
    7.8883   -4.7597    0.0000 C   0  0  0  0  0  0  0  0  0  0  0  0
    8.6016   -5.1685    0.0000 N   0  0  0  0  0  0  0  0  0  0  0  0
    7.0373   -3.3456    0.0000 C   0  0  0  0  0  0  0  0  0  0  0  0
    5.7358   -5.9986    0.0000 O   0  0  0  0  0  0  0  0  0  0  0  0
   10.0408   -5.9861    0.0000 O   0  0  0  0  0  0  0  0  0  0  0  0
    9.5778   -1.7771    0.0000 C   0  0  0  0  0  0  0  0  0  0  0  0
    3.5959   -3.9463    0.0000 O   0  0  0  0  0  0  0  0  0  0  0  0
    7.8883   -3.9337    0.0000 O   0  0  0  0  0  0  0  0  0  0  0  0
    2.8825   -5.1852    0.0000 O   0  0  0  0  0  0  0  0  0  0  0  0
   10.7416   -3.9212    0.0000 F   0  0  0  0  0  0  0  0  0  0  0  0
   10.9669   -5.5439    0.0000 F   0  0  0  0  0  0  0  0  0  0  0  0
   11.4549   -5.1602    0.0000 F   0  0  0  0  0  0  0  0  0  0  0  0
    9.8030   -2.5697    0.0000 O   0  0  0  0  0  0  0  0  0  0  0  0
    7.8383   -3.5541    0.0000 C   0  0  0  0  0  0  0  0  0  0  0  0
    6.8121   -2.5446    0.0000 C   0  0  0  0  0  0  0  0  0  0  0  0
    8.7768   -1.5685    0.0000 N   0  0  0  0  0  0  0  0  0  0  0  0
    9.3775   -4.0464    0.0000 C   0  0  0  0  0  0  0  0  0  0  0  0
    8.2012   -2.1567    0.0000 C   0  0  0  0  0  0  0  0  0  0  0  0
    2.1692   -4.7722    0.0000 C   0  0  0  0  0  0  0  0  0  0  0  0
    8.4264   -2.9576    0.0000 C   0  0  0  0  0  0  0  0  0  0  0  0
    7.3877   -1.9565    0.0000 C   0  0  0  0  0  0  0  0  0  0  0  0
    1.4559   -5.1935    0.0000 C   0  0  0  0  0  0  0  0  0  0  0  0
   10.1034   -3.6542    0.0000 C   0  0  0  0  0  0  0  0  0  0  0  0
    8.6767   -3.6209    0.0000 C   0  0  0  0  0  0  0  0  0  0  0  0
    1.4559   -6.0237    0.0000 C   0  0  0  0  0  0  0  0  0  0  0  0
    0.7426   -4.7805    0.0000 C   0  0  0  0  0  0  0  0  0  0  0  0
    0.7426   -6.4366    0.0000 C   0  0  0  0  0  0  0  0  0  0  0  0
    0.0292   -5.1935    0.0000 C   0  0  0  0  0  0  0  0  0  0  0  0
    0.0292   -6.0237    0.0000 C   0  0  0  0  0  0  0  0  0  0  0  0
  2  1  1  0  0  0  0
  3  1  1  0  0  0  0
  4  2  1  0  0  0  0
  5  3  2  0  0  0  0
  6  9  1  0  0  0  0
  7  6  1  0  0  0  0
  8  5  1  0  0  0  0
  9 14  1  0  0  0  0
 10  4  1  0  0  0  0
 11 10  1  0  0  0  0
 12  1  1  0  0  0  0
 13 12  1  0  0  0  0
 14 13  1  0  0  0  0
 15  3  1  0  0  0  0
 16  2  2  0  0  0  0
 17  6  2  0  0  0  0
 18 28  1  0  0  0  0
 19 11  2  0  0  0  0
 20 13  2  0  0  0  0
 21 11  1  0  0  0  0
 22  7  1  0  0  0  0
 23  7  1  0  0  0  0
 24  7  1  0  0  0  0
 25 18  2  0  0  0  0
 26 15  2  0  0  0  0
 27 15  1  0  0  0  0
 28 30  1  0  0  0  0
 29  9  1  0  0  0  0
 30 33  1  0  0  0  0
 31 21  1  0  0  0  0
 32 26  1  0  0  0  0
 33 27  2  0  0  0  0
 34 31  1  0  0  0  0
 35 29  1  0  0  0  0
 36 29  1  0  0  0  0
 37 34  1  0  0  0  0
 38 34  2  0  0  0  0
 39 37  2  0  0  0  0
 40 38  1  0  0  0  0
 41 40  2  0  0  0  0
  8  4  2  0  0  0  0
 32 30  2  0  0  0  0
 39 41  1  0  0  0  0
M  END
>  <Mol Weight>
573.5204

>  <Formula>
C27H26F3N5O6

>  <chembl_id>
CHEMBL11347

$$$$

  Mrv0541 06201412482D          

 40 44  0  0  0  0            999 V2000
    4.1378    0.0208    0.0000 S   0  0  0  0  0  0  0  0  0  0  0  0
   -0.1503    0.0208    0.0000 N   0  0  0  0  0  0  0  0  0  0  0  0
    4.8392    1.2734    0.0000 C   0  0  0  0  0  0  0  0  0  0  0  0
   -0.9019    0.3633    0.0000 C   0  0  0  0  0  0  0  0  0  0  0  0
    4.1335    0.8476    0.0000 N   0  0  0  0  0  0  0  0  0  0  0  0
   -1.0480   -0.9687    0.0000 N   0  0  0  0  0  0  0  0  0  0  0  0
   -1.4530   -0.1545    0.0000 C   0  0  0  0  0  0  0  0  0  0  0  0
   -0.2338   -0.7933    0.0000 C   0  0  0  0  0  0  0  0  0  0  0  0
    4.9144    2.0918    0.0000 C   0  0  0  0  0  0  0  0  0  0  0  0
    6.1419    1.5615    0.0000 N   0  0  0  0  0  0  0  0  0  0  0  0
    4.1378   -0.8017    0.0000 C   0  0  0  0  0  0  0  0  0  0  0  0
    5.5991    0.9394    0.0000 O   0  0  0  0  0  0  0  0  0  0  0  0
    3.4238   -1.2150    0.0000 C   0  0  0  0  0  0  0  0  0  0  0  0
    2.7098   -0.8059    0.0000 C   0  0  0  0  0  0  0  0  0  0  0  0
    5.7243    2.2755    0.0000 C   0  0  0  0  0  0  0  0  0  0  0  0
    1.9958   -1.2192    0.0000 C   0  0  0  0  0  0  0  0  0  0  0  0
   -0.9770    1.1273    0.0000 C   0  0  0  0  0  0  0  0  0  0  0  0
    0.5679    0.4342    0.0000 C   0  0  0  0  0  0  0  0  0  0  0  0
    3.4196    0.4342    0.0000 O   0  0  0  0  0  0  0  0  0  0  0  0
    4.8517    0.4384    0.0000 O   0  0  0  0  0  0  0  0  0  0  0  0
    2.7098    0.0251    0.0000 C   0  0  0  0  0  0  0  0  0  0  0  0
    1.2819   -0.8059    0.0000 C   0  0  0  0  0  0  0  0  0  0  0  0
    1.2819    0.0251    0.0000 C   0  0  0  0  0  0  0  0  0  0  0  0
   -0.3257    1.5240    0.0000 O   0  0  0  0  0  0  0  0  0  0  0  0
    1.9958    0.4384    0.0000 C   0  0  0  0  0  0  0  0  0  0  0  0
    4.3006    2.6388    0.0000 C   0  0  0  0  0  0  0  0  0  0  0  0
   -2.2129   -0.0626    0.0000 C   0  0  0  0  0  0  0  0  0  0  0  0
    0.1754   -1.5073    0.0000 C   0  0  0  0  0  0  0  0  0  0  0  0
    3.4238   -2.0459    0.0000 C   0  0  0  0  0  0  0  0  0  0  0  0
    1.9958   -2.0459    0.0000 C   0  0  0  0  0  0  0  0  0  0  0  0
    4.8517   -1.2067    0.0000 C   0  0  0  0  0  0  0  0  0  0  0  0
    1.2568   -2.4092    0.0000 O   0  0  0  0  0  0  0  0  0  0  0  0
    6.0542    3.0271    0.0000 C   0  0  0  0  0  0  0  0  0  0  0  0
   -1.6116    1.5407    0.0000 C   0  0  0  0  0  0  0  0  0  0  0  0
   -0.2463   -2.2213    0.0000 C   0  0  0  0  0  0  0  0  0  0  0  0
   -2.6054    0.5970    0.0000 C   0  0  0  0  0  0  0  0  0  0  0  0
    4.1461   -2.4551    0.0000 C   0  0  0  0  0  0  0  0  0  0  0  0
    4.8601   -2.0417    0.0000 C   0  0  0  0  0  0  0  0  0  0  0  0
   -2.3381    1.3110    0.0000 C   0  0  0  0  0  0  0  0  0  0  0  0
   -1.0730   -2.2171    0.0000 C   0  0  0  0  0  0  0  0  0  0  0  0
  2 18  1  0  0  0  0
  3  5  1  0  0  0  0
  4  2  1  0  0  0  0
  5  1  1  0  0  0  0
  6  8  2  0  0  0  0
  7  4  2  0  0  0  0
  8  2  1  0  0  0  0
  9  3  2  0  0  0  0
 10 12  1  0  0  0  0
 11  1  1  0  0  0  0
 12  3  1  0  0  0  0
 13 11  1  0  0  0  0
 14 13  1  0  0  0  0
 15  9  1  0  0  0  0
 16 14  2  0  0  0  0
 17  4  1  0  0  0  0
 18 23  1  0  0  0  0
 19  1  2  0  0  0  0
 20  1  2  0  0  0  0
 21 14  1  0  0  0  0
 22 16  1  0  0  0  0
 23 25  1  0  0  0  0
 24 17  2  0  0  0  0
 25 21  2  0  0  0  0
 26  9  1  0  0  0  0
 27  7  1  0  0  0  0
 28  8  1  0  0  0  0
 29 13  2  0  0  0  0
 30 16  1  0  0  0  0
 31 11  2  0  0  0  0
 32 30  1  0  0  0  0
 33 15  1  0  0  0  0
 34 17  1  0  0  0  0
 35 28  1  0  0  0  0
 36 27  1  0  0  0  0
 37 38  2  0  0  0  0
 38 31  1  0  0  0  0
 39 34  1  0  0  0  0
 40 35  1  0  0  0  0
 37 29  1  0  0  0  0
 15 10  2  0  0  0  0
 23 22  2  0  0  0  0
  6  7  1  0  0  0  0
 39 36  1  0  0  0  0
M  END
>  <Mol Weight>
562.68

>  <Formula>
C30H34N4O5S

>  <chembl_id>
CHEMBL11528

$$$$

  Mrv0541 06201412482D          

 42 44  0  0  0  0            999 V2000
    3.3559  -16.2815    0.0000 C   0  0  0  0  0  0  0  0  0  0  0  0
    4.0730  -15.8709    0.0000 C   0  0  0  0  0  0  0  0  0  0  0  0
    4.7876  -16.2815    0.0000 N   0  0  0  0  0  0  0  0  0  0  0  0
    4.0730  -15.0472    0.0000 O   0  0  0  0  0  0  0  0  0  0  0  0
    3.3559  -17.1095    0.0000 N   0  0  0  0  0  0  0  0  0  0  0  0
    2.6413  -17.5224    0.0000 C   0  0  0  0  0  0  0  0  0  0  0  0
    2.6413  -18.3504    0.0000 C   0  0  0  0  0  0  0  0  0  0  0  0
    1.9244  -17.1095    0.0000 O   0  0  0  0  0  0  0  0  0  0  0  0
    3.3559  -18.7610    0.0000 C   0  0  2  0  0  0  0  0  0  0  0  0
    3.3559  -19.5847    0.0000 C   0  0  2  0  0  0  0  0  0  0  0  0
    4.0730  -19.9978    0.0000 C   0  0  0  0  0  0  0  0  0  0  0  0
    2.6413  -19.9978    0.0000 C   0  0  0  0  0  0  0  0  0  0  0  0
    4.0730  -20.8257    0.0000 C   0  0  0  0  0  0  0  0  0  0  0  0
    4.0730  -18.3504    0.0000 N   0  0  0  0  0  0  0  0  0  0  0  0
    4.7876  -18.7610    0.0000 C   0  0  0  0  0  0  0  0  0  0  0  0
    5.8698  -18.3504    0.0000 C   0  0  2  0  0  0  0  0  0  0  0  0
    4.7876  -19.5847    0.0000 O   0  0  0  0  0  0  0  0  0  0  0  0
    6.2151  -18.7610    0.0000 C   0  0  0  0  0  0  0  0  0  0  0  0
    6.2151  -19.5847    0.0000 C   0  0  0  0  0  0  0  0  0  0  0  0
    5.5513  -20.0746    0.0000 C   0  0  0  0  0  0  0  0  0  0  0  0
    6.8932  -20.0746    0.0000 N   0  0  0  0  0  0  0  0  0  0  0  0
    5.4980  -15.8709    0.0000 C   0  0  2  0  0  0  0  0  0  0  0  0
    6.2151  -16.2815    0.0000 C   0  0  0  0  0  0  0  0  0  0  0  0
    5.4980  -15.0472    0.0000 C   0  0  0  0  0  0  0  0  0  0  0  0
    6.2134  -14.6276    0.0000 C   0  0  0  0  0  0  0  0  0  0  0  0
    6.9250  -15.0382    0.0000 C   0  0  0  0  0  0  0  0  0  0  0  0
    7.6388  -14.6253    0.0000 C   0  0  0  0  0  0  0  0  0  0  0  0
    8.3505  -15.0360    0.0000 C   0  0  0  0  0  0  0  0  0  0  0  0
    9.0644  -14.6188    0.0000 C   0  0  0  0  0  0  0  0  0  0  0  0
    9.0616  -13.7951    0.0000 O   0  0  0  0  0  0  0  0  0  0  0  0
    6.6352  -20.8561    0.0000 C   0  0  0  0  0  0  0  0  0  0  0  0
    5.8101  -20.8544    0.0000 C   0  0  0  0  0  0  0  0  0  0  0  0
    5.4021  -21.5642    0.0000 C   0  0  0  0  0  0  0  0  0  0  0  0
    5.8110  -22.2786    0.0000 C   0  0  0  0  0  0  0  0  0  0  0  0
    6.6368  -22.2783    0.0000 C   0  0  0  0  0  0  0  0  0  0  0  0
    7.0456  -21.5611    0.0000 C   0  0  0  0  0  0  0  0  0  0  0  0
    6.9297  -15.8709    0.0000 O   0  0  0  0  0  0  0  0  0  0  0  0
    6.2151  -17.1095    0.0000 N   0  0  0  0  0  0  0  0  0  0  0  0
    2.6269  -19.1741    0.0000 H   0  0  0  0  0  0  0  0  0  0  0  0
    9.7830  -15.0305    0.0000 C   0  0  0  0  0  0  0  0  0  0  0  0
   10.4947  -14.6186    0.0000 C   0  0  0  0  0  0  0  0  0  0  0  0
    4.0694  -17.5221    0.0000 C   0  0  0  0  0  0  0  0  0  0  0  0
 21 19  1  0  0  0  0
 10 11  1  0  0  0  0
  3 22  1  0  0  0  0
  5  6  1  0  0  0  0
 22 23  1  0  0  0  0
 10 12  1  6  0  0  0
 22 24  1  1  0  0  0
  1  2  1  0  0  0  0
 24 25  1  0  0  0  0
 11 13  1  0  0  0  0
 25 26  1  0  0  0  0
  6  7  1  0  0  0  0
 26 27  1  0  0  0  0
  9 14  1  0  0  0  0
 27 28  1  0  0  0  0
  2  4  2  0  0  0  0
 28 29  1  0  0  0  0
 14 15  1  0  0  0  0
  6  8  2  0  0  0  0
 29 30  2  0  0  0  0
 15 16  1  0  0  0  0
 31 32  2  0  0  0  0
 15 17  2  0  0  0  0
 32 33  1  0  0  0  0
  7  9  1  0  0  0  0
 33 34  2  0  0  0  0
 16 18  1  1  0  0  0
 34 35  1  0  0  0  0
  1  5  1  0  0  0  0
 35 36  2  0  0  0  0
 36 31  1  0  0  0  0
 18 19  1  0  0  0  0
 23 37  2  0  0  0  0
 19 20  2  0  0  0  0
 23 38  1  0  0  0  0
 16 38  1  0  0  0  0
 10  9  1  0  0  0  0
  2  3  1  0  0  0  0
  9 39  1  6  0  0  0
 29 40  1  0  0  0  0
 20 32  1  0  0  0  0
 40 41  1  0  0  0  0
 31 21  1  0  0  0  0
 14 42  1  0  0  0  0
M  END
>  <Mol Weight>
567.7195

>  <Formula>
C31H45N5O5

>  <chembl_id>
CHEMBL1163375

$$$$

  Mrv0541 06201412482D          

 42 46  0  0  0  0            999 V2000
    7.8605   -1.8906    0.0000 C   0  0  0  0  0  0  0  0  0  0  0  0
   -5.2536   -3.5636    0.0000 C   0  0  0  0  0  0  0  0  0  0  0  0
   -5.2536   -2.7386    0.0000 N   0  0  0  0  0  0  0  0  0  0  0  0
    7.8605   -1.0656    0.0000 N   0  0  0  0  0  0  0  0  0  0  0  0
    7.1386   -2.2917    0.0000 N   0  0  0  0  0  0  0  0  0  0  0  0
   -4.5317   -3.9761    0.0000 N   0  0  0  0  0  0  0  0  0  0  0  0
    8.5766   -2.3031    0.0000 N   0  0  0  0  0  0  0  0  0  0  0  0
   -5.9755   -3.9761    0.0000 N   0  0  0  0  0  0  0  0  0  0  0  0
    6.4339   -1.0542    0.0000 C   0  0  0  0  0  0  0  0  0  0  0  0
   -3.8270   -2.7328    0.0000 C   0  0  0  0  0  0  0  0  0  0  0  0
   -1.6786   -2.3261    0.0000 C   0  0  0  0  0  0  0  0  0  0  0  0
   -6.6802   -3.5636    0.0000 C   0  0  0  0  0  0  0  0  0  0  0  0
    9.2870   -1.8964    0.0000 C   0  0  0  0  0  0  0  0  0  0  0  0
   -3.8270   -3.5636    0.0000 C   0  0  0  0  0  0  0  0  0  0  0  0
    6.4339   -1.8792    0.0000 C   0  0  0  0  0  0  0  0  0  0  0  0
    4.3027   -0.6417    0.0000 C   0  0  0  0  0  0  0  0  0  0  0  0
   -2.4005   -2.7386    0.0000 C   0  0  0  0  0  0  0  0  0  0  0  0
   -0.7047   -2.6870    0.0000 N   0  0  0  0  0  0  0  0  0  0  0  0
    5.0073   -1.0542    0.0000 C   0  0  0  0  0  0  0  0  0  0  0  0
   -3.1052   -2.3203    0.0000 C   0  0  0  0  0  0  0  0  0  0  0  0
    5.7234   -0.6417    0.0000 C   0  0  0  0  0  0  0  0  0  0  0  0
   -1.7474   -1.5011    0.0000 O   0  0  0  0  0  0  0  0  0  0  0  0
    9.2984   -1.0714    0.0000 O   0  0  0  0  0  0  0  0  0  0  0  0
   -6.6802   -2.7386    0.0000 O   0  0  0  0  0  0  0  0  0  0  0  0
    4.2969    0.1833    0.0000 O   0  0  0  0  0  0  0  0  0  0  0  0
    5.7234   -2.2917    0.0000 C   0  0  0  0  0  0  0  0  0  0  0  0
   -3.1109   -3.9703    0.0000 C   0  0  0  0  0  0  0  0  0  0  0  0
   -2.4005   -3.5636    0.0000 C   0  0  0  0  0  0  0  0  0  0  0  0
    5.0073   -1.8792    0.0000 C   0  0  0  0  0  0  0  0  0  0  0  0
    3.5808   -1.0542    0.0000 N   0  0  0  0  0  0  0  0  0  0  0  0
    0.0058   -2.2745    0.0000 C   0  0  0  0  0  0  0  0  0  0  0  0
   -7.4020   -3.9761    0.0000 O   0  0  0  0  0  0  0  0  0  0  0  0
   10.0031   -2.3089    0.0000 O   0  0  0  0  0  0  0  0  0  0  0  0
    1.4323   -1.4495    0.0000 C   0  0  0  0  0  0  0  0  0  0  0  0
    0.0058   -1.4495    0.0000 C   0  0  0  0  0  0  0  0  0  0  0  0
    0.7219   -2.6870    0.0000 C   0  0  0  0  0  0  0  0  0  0  0  0
    0.7277   -1.0370    0.0000 C   0  0  0  0  0  0  0  0  0  0  0  0
    1.4323   -2.2745    0.0000 C   0  0  0  0  0  0  0  0  0  0  0  0
    2.8589   -1.4609    0.0000 C   0  0  0  0  0  0  0  0  0  0  0  0
    2.1542   -1.0484    0.0000 C   0  0  0  0  0  0  0  0  0  0  0  0
   10.7136   -1.8964    0.0000 C   0  0  0  0  0  0  0  0  0  0  0  0
   -8.1067   -3.5636    0.0000 C   0  0  0  0  0  0  0  0  0  0  0  0
  2  3  2  0  0  0  0
  3 10  1  0  0  0  0
  4  1  2  0  0  0  0
  5  1  1  0  0  0  0
  6 14  1  0  0  0  0
  7  1  1  0  0  0  0
  8  2  1  0  0  0  0
  9  4  1  0  0  0  0
 10 20  2  0  0  0  0
 11 18  1  0  0  0  0
 12  8  1  0  0  0  0
 13  7  1  0  0  0  0
 14 27  2  0  0  0  0
 15  5  1  0  0  0  0
 16 19  1  0  0  0  0
 17 11  1  0  0  0  0
 18 31  1  0  0  0  0
 19 21  2  0  0  0  0
 20 17  1  0  0  0  0
 21  9  1  0  0  0  0
 22 11  2  0  0  0  0
 23 13  2  0  0  0  0
 24 12  2  0  0  0  0
 25 16  2  0  0  0  0
 26 15  1  0  0  0  0
 27 28  1  0  0  0  0
 28 17  2  0  0  0  0
 29 26  2  0  0  0  0
 30 16  1  0  0  0  0
 31 36  2  0  0  0  0
 32 12  1  0  0  0  0
 33 13  1  0  0  0  0
 34 40  1  0  0  0  0
 35 37  2  0  0  0  0
 36 38  1  0  0  0  0
 37 34  1  0  0  0  0
 38 34  2  0  0  0  0
 39 30  1  0  0  0  0
 40 39  1  0  0  0  0
 41 33  1  0  0  0  0
 42 32  1  0  0  0  0
 15  9  2  0  0  0  0
 29 19  1  0  0  0  0
 31 35  1  0  0  0  0
 10 14  1  0  0  0  0
  6  2  1  0  0  0  0
M  END
>  <Mol Weight>
570.556

>  <Formula>
C28H26N8O6

>  <chembl_id>
CHEMBL11725

$$$$

  Mrv0541 06201412482D          

 38 38  0  0  0  0            999 V2000
    3.1417  -12.0542    0.0000 N   0  3  0  0  0  0  0  0  0  0  0  0
    1.3125   -6.4542    0.0000 C   0  0  0  0  0  0  0  0  0  0  0  0
    3.1417   -7.7667    0.0000 C   0  0  0  0  0  0  0  0  0  0  0  0
    0.1375   -6.4542    0.0000 O   0  0  0  0  0  0  0  0  0  0  0  0
    6.2625   -9.5167    0.0000 Br  0  5  0  0  0  0  0  0  0  0  0  0
    3.9667   -7.7667    0.0000 O   0  0  0  0  0  0  0  0  0  0  0  0
    2.7292   -7.0542    0.0000 O   0  0  0  0  0  0  0  0  0  0  0  0
    1.9042   -7.0542    0.0000 C   0  0  0  0  0  0  0  0  0  0  0  0
    0.7250   -7.0417    0.0000 C   0  0  0  0  0  0  0  0  0  0  0  0
    0.7250   -5.8667    0.0000 C   0  0  0  0  0  0  0  0  0  0  0  0
    2.7292  -11.3375    0.0000 C   0  0  0  0  0  0  0  0  0  0  0  0
    2.7292  -12.7667    0.0000 C   0  0  0  0  0  0  0  0  0  0  0  0
    3.9667  -12.0500    0.0000 C   0  0  0  0  0  0  0  0  0  0  0  0
    1.9042   -5.8792    0.0000 C   0  0  0  0  0  0  0  0  0  0  0  0
    2.7292   -5.8792    0.0000 O   0  0  0  0  0  0  0  0  0  0  0  0
    2.7292   -8.4792    0.0000 C   0  0  0  0  0  0  0  0  0  0  0  0
    3.1417   -5.1667    0.0000 C   0  0  0  0  0  0  0  0  0  0  0  0
    3.1417  -10.6250    0.0000 C   0  0  0  0  0  0  0  0  0  0  0  0
    3.1417   -9.1917    0.0000 C   0  0  0  0  0  0  0  0  0  0  0  0
    3.9667   -5.1667    0.0000 C   0  0  0  0  0  0  0  0  0  0  0  0
   11.8042   -0.1667    0.0000 C   0  0  0  0  0  0  0  0  0  0  0  0
    4.3792  -12.7625    0.0000 C   0  0  0  0  0  0  0  0  0  0  0  0
    3.1417  -13.4792    0.0000 C   0  0  0  0  0  0  0  0  0  0  0  0
   11.3917   -0.8792    0.0000 C   0  0  0  0  0  0  0  0  0  0  0  0
    8.0917   -2.3042    0.0000 C   0  0  0  0  0  0  0  0  0  0  0  0
    8.9167   -2.3042    0.0000 C   0  0  0  0  0  0  0  0  0  0  0  0
    9.3292   -1.5917    0.0000 C   0  0  0  0  0  0  0  0  0  0  0  0
   10.1542   -1.5917    0.0000 C   0  0  0  0  0  0  0  0  0  0  0  0
   10.5667   -0.8792    0.0000 C   0  0  0  0  0  0  0  0  0  0  0  0
    4.3792   -4.4542    0.0000 C   0  0  0  0  0  0  0  0  0  0  0  0
    5.2042   -4.4542    0.0000 C   0  0  0  0  0  0  0  0  0  0  0  0
    5.6167   -3.7375    0.0000 C   0  0  0  0  0  0  0  0  0  0  0  0
    2.7292   -9.9042    0.0000 C   0  0  0  0  0  0  0  0  0  0  0  0
    6.4417   -3.7375    0.0000 C   0  0  0  0  0  0  0  0  0  0  0  0
    6.8542   -3.0250    0.0000 C   0  0  0  0  0  0  0  0  0  0  0  0
    7.6792   -3.0250    0.0000 C   0  0  0  0  0  0  0  0  0  0  0  0
   12.6292   -0.1667    0.0000 C   0  0  0  0  0  0  0  0  0  0  0  0
    3.9667  -13.4792    0.0000 C   0  0  0  0  0  0  0  0  0  0  0  0
  2  8  1  0  0  0  0
  3 16  1  0  0  0  0
  4  9  1  0  0  0  0
  6  3  2  0  0  0  0
  7  3  1  0  0  0  0
  8  7  1  0  0  0  0
  9  2  1  0  0  0  0
 10  2  1  0  0  0  0
 11  1  1  0  0  0  0
 12  1  2  0  0  0  0
 13  1  1  0  0  0  0
 14  2  1  0  0  0  0
 15 14  1  0  0  0  0
 16 19  1  0  0  0  0
 17 15  1  0  0  0  0
 18 11  1  0  0  0  0
 19 33  1  0  0  0  0
 20 17  1  0  0  0  0
 21 24  1  0  0  0  0
 22 13  2  0  0  0  0
 23 12  1  0  0  0  0
 24 29  1  0  0  0  0
 25 36  1  0  0  0  0
 26 25  1  0  0  0  0
 27 26  1  0  0  0  0
 28 27  1  0  0  0  0
 29 28  1  0  0  0  0
 30 20  1  0  0  0  0
 31 30  1  0  0  0  0
 32 31  1  0  0  0  0
 33 18  1  0  0  0  0
 34 32  1  0  0  0  0
 35 34  1  0  0  0  0
 36 35  1  0  0  0  0
 37 21  1  0  0  0  0
 38 23  2  0  0  0  0
 22 38  1  0  0  0  0
 10  4  1  0  0  0  0
M  CHG  2   1   1   5  -1
M  END
>  <Mol Weight>
598.695

>  <Formula>
C32H56BrNO4

>  <chembl_id>
CHEMBL11754

$$$$

  Mrv0541 06201412482D          

 40 43  0  0  0  0            999 V2000
    5.0056   -0.4793    0.0000 S   0  0  0  0  0  0  0  0  0  0  0  0
    0.7294   -0.4793    0.0000 N   0  0  0  0  0  0  0  0  0  0  0  0
   -0.0208   -0.1417    0.0000 C   0  0  0  0  0  0  0  0  0  0  0  0
    5.7141    0.7627    0.0000 C   0  0  0  0  0  0  0  0  0  0  0  0
    5.0056    0.3459    0.0000 N   0  0  0  0  0  0  0  0  0  0  0  0
   -0.1625   -1.4671    0.0000 N   0  0  0  0  0  0  0  0  0  0  0  0
   -0.5710   -0.6669    0.0000 C   0  0  0  0  0  0  0  0  0  0  0  0
    0.6419   -1.2921    0.0000 C   0  0  0  0  0  0  0  0  0  0  0  0
    5.7892    1.5838    0.0000 C   0  0  0  0  0  0  0  0  0  0  0  0
    7.0145    1.0503    0.0000 N   0  0  0  0  0  0  0  0  0  0  0  0
    5.0139   -1.3046    0.0000 C   0  0  0  0  0  0  0  0  0  0  0  0
    6.4686    0.4334    0.0000 O   0  0  0  0  0  0  0  0  0  0  0  0
    4.3012   -1.7172    0.0000 C   0  0  0  0  0  0  0  0  0  0  0  0
    3.5885   -1.3046    0.0000 C   0  0  0  0  0  0  0  0  0  0  0  0
   -0.1625    0.6710    0.0000 C   0  0  0  0  0  0  0  0  0  0  0  0
    6.5936    1.7630    0.0000 C   0  0  0  0  0  0  0  0  0  0  0  0
    2.8675   -1.7172    0.0000 C   0  0  0  0  0  0  0  0  0  0  0  0
    1.4421   -0.0667    0.0000 C   0  0  0  0  0  0  0  0  0  0  0  0
    4.2929   -0.0750    0.0000 O   0  0  0  0  0  0  0  0  0  0  0  0
    5.7183   -0.0667    0.0000 O   0  0  0  0  0  0  0  0  0  0  0  0
    3.5885   -0.4793    0.0000 C   0  0  0  0  0  0  0  0  0  0  0  0
    2.1548   -1.3046    0.0000 C   0  0  0  0  0  0  0  0  0  0  0  0
    2.1548   -0.4793    0.0000 C   0  0  0  0  0  0  0  0  0  0  0  0
   -0.9336    0.9586    0.0000 O   0  0  0  0  0  0  0  0  0  0  0  0
    0.4751    1.2003    0.0000 N   0  0  0  0  0  0  0  0  0  0  0  0
    2.8675   -0.0667    0.0000 C   0  0  0  0  0  0  0  0  0  0  0  0
    5.1682    2.1339    0.0000 C   0  0  0  0  0  0  0  0  0  0  0  0
   -1.3837   -0.5294    0.0000 C   0  0  0  0  0  0  0  0  0  0  0  0
    1.0545   -2.0048    0.0000 C   0  0  0  0  0  0  0  0  0  0  0  0
    4.3012   -2.5424    0.0000 C   0  0  0  0  0  0  0  0  0  0  0  0
    2.8675   -2.5424    0.0000 C   0  0  0  0  0  0  0  0  0  0  0  0
    5.7266   -1.7130    0.0000 C   0  0  0  0  0  0  0  0  0  0  0  0
    6.9187    2.5215    0.0000 C   0  0  0  0  0  0  0  0  0  0  0  0
    2.1298   -2.9133    0.0000 O   0  0  0  0  0  0  0  0  0  0  0  0
    2.0798   -3.7386    0.0000 C   0  0  0  0  0  0  0  0  0  0  0  0
    0.6377   -2.7175    0.0000 C   0  0  0  0  0  0  0  0  0  0  0  0
   -1.6713    0.2459    0.0000 C   0  0  0  0  0  0  0  0  0  0  0  0
    5.0181   -2.9550    0.0000 C   0  0  0  0  0  0  0  0  0  0  0  0
    5.7308   -2.5424    0.0000 C   0  0  0  0  0  0  0  0  0  0  0  0
   -0.1876   -2.7175    0.0000 C   0  0  0  0  0  0  0  0  0  0  0  0
  2 18  1  0  0  0  0
  3  2  1  0  0  0  0
  4  5  1  0  0  0  0
  5  1  1  0  0  0  0
  6  8  2  0  0  0  0
  7  3  2  0  0  0  0
  8  2  1  0  0  0  0
  9  4  2  0  0  0  0
 10 12  1  0  0  0  0
 11  1  1  0  0  0  0
 12  4  1  0  0  0  0
 13 11  1  0  0  0  0
 14 13  1  0  0  0  0
 15  3  1  0  0  0  0
 16  9  1  0  0  0  0
 17 14  2  0  0  0  0
 18 23  1  0  0  0  0
 19  1  2  0  0  0  0
 20  1  2  0  0  0  0
 21 14  1  0  0  0  0
 22 17  1  0  0  0  0
 23 26  1  0  0  0  0
 24 15  2  0  0  0  0
 25 15  1  0  0  0  0
 26 21  2  0  0  0  0
 27  9  1  0  0  0  0
 28  7  1  0  0  0  0
 29  8  1  0  0  0  0
 30 13  2  0  0  0  0
 31 17  1  0  0  0  0
 32 11  2  0  0  0  0
 33 16  1  0  0  0  0
 34 31  1  0  0  0  0
 35 34  1  0  0  0  0
 36 29  1  0  0  0  0
 37 28  1  0  0  0  0
 38 39  2  0  0  0  0
 39 32  1  0  0  0  0
 40 36  1  0  0  0  0
 38 30  1  0  0  0  0
 16 10  2  0  0  0  0
 23 22  2  0  0  0  0
  6  7  1  0  0  0  0
M  END
>  <Mol Weight>
565.684

>  <Formula>
C29H35N5O5S

>  <chembl_id>
CHEMBL11840

$$$$

  Mrv0541 06201412482D          

 35 36  0  0  0  0            999 V2000
    6.5125   -1.4667    0.0000 S   0  0  0  0  0  0  0  0  0  0  0  0
    5.8000   -1.8792    0.0000 C   0  0  0  0  0  0  0  0  0  0  0  0
    5.0792   -1.4667    0.0000 S   0  0  0  0  0  0  0  0  0  0  0  0
    7.2292   -1.8750    0.0000 C   0  0  0  0  0  0  0  0  0  0  0  0
    1.5125   -2.7167    0.0000 C   0  0  0  0  0  0  0  0  0  0  0  0
    5.8167   -6.8292    0.0000 C   0  0  0  0  0  0  0  0  0  0  0  0
    5.8000   -2.7042    0.0000 C   0  0  0  0  0  0  0  0  0  0  0  0
    4.3667   -1.8875    0.0000 C   0  0  0  0  0  0  0  0  0  0  0  0
    7.0917   -0.8792    0.0000 O   0  0  0  0  0  0  0  0  0  0  0  0
    6.0917   -0.7500    0.0000 O   0  0  0  0  0  0  0  0  0  0  0  0
    5.6667   -0.8792    0.0000 O   0  0  0  0  0  0  0  0  0  0  0  0
    4.3667   -1.0542    0.0000 O   0  0  0  0  0  0  0  0  0  0  0  0
    6.5292   -6.4125    0.0000 O   0  0  0  0  0  0  0  0  0  0  0  0
    2.2250   -3.1292    0.0000 O   0  0  0  0  0  0  0  0  0  0  0  0
    6.5167   -3.1167    0.0000 S   0  0  0  0  0  0  0  0  0  0  0  0
    6.6417   -2.4625    0.0000 F   0  0  0  0  0  0  0  0  0  0  0  0
    7.2292   -2.7000    0.0000 F   0  0  0  0  0  0  0  0  0  0  0  0
    7.9417   -1.4542    0.0000 F   0  0  0  0  0  0  0  0  0  0  0  0
    3.6542   -1.4750    0.0000 C   0  0  0  0  0  0  0  0  0  0  0  0
    4.3667   -2.7167    0.0000 C   0  0  0  0  0  0  0  0  0  0  0  0
    0.7917   -3.1292    0.0000 F   0  0  0  0  0  0  0  0  0  0  0  0
    1.5125   -1.8917    0.0000 F   0  0  0  0  0  0  0  0  0  0  0  0
    1.7250   -3.5125    0.0000 F   0  0  0  0  0  0  0  0  0  0  0  0
    5.8167   -7.6542    0.0000 F   0  0  0  0  0  0  0  0  0  0  0  0
    5.1000   -6.4167    0.0000 F   0  0  0  0  0  0  0  0  0  0  0  0
    6.6125   -7.0375    0.0000 F   0  0  0  0  0  0  0  0  0  0  0  0
    6.5167   -3.9417    0.0000 C   0  0  0  0  0  0  0  0  0  0  0  0
    2.9417   -2.7167    0.0000 C   0  0  0  0  0  0  0  0  0  0  0  0
    6.5250   -5.5875    0.0000 C   0  0  0  0  0  0  0  0  0  0  0  0
    2.9417   -1.8875    0.0000 C   0  0  0  0  0  0  0  0  0  0  0  0
    3.6542   -3.1292    0.0000 C   0  0  0  0  0  0  0  0  0  0  0  0
    5.8042   -4.3500    0.0000 C   0  0  0  0  0  0  0  0  0  0  0  0
    7.2292   -4.3417    0.0000 C   0  0  0  0  0  0  0  0  0  0  0  0
    7.2417   -5.1667    0.0000 C   0  0  0  0  0  0  0  0  0  0  0  0
    5.8042   -5.1750    0.0000 C   0  0  0  0  0  0  0  0  0  0  0  0
  2  1  1  0  0  0  0
  3  2  1  0  0  0  0
  4  1  1  0  0  0  0
  5 14  1  0  0  0  0
  6 13  1  0  0  0  0
  7  2  1  0  0  0  0
  8  3  1  0  0  0  0
  9  1  2  0  0  0  0
 10  1  2  0  0  0  0
 11  3  2  0  0  0  0
 12  3  2  0  0  0  0
 13 29  1  0  0  0  0
 14 28  1  0  0  0  0
 15  7  1  0  0  0  0
 16  4  1  0  0  0  0
 17  4  1  0  0  0  0
 18  4  1  0  0  0  0
 19  8  2  0  0  0  0
 20  8  1  0  0  0  0
 21  5  1  0  0  0  0
 22  5  1  0  0  0  0
 23  5  1  0  0  0  0
 24  6  1  0  0  0  0
 25  6  1  0  0  0  0
 26  6  1  0  0  0  0
 27 15  1  0  0  0  0
 28 31  1  0  0  0  0
 29 34  1  0  0  0  0
 30 19  1  0  0  0  0
 31 20  2  0  0  0  0
 32 27  2  0  0  0  0
 33 27  1  0  0  0  0
 34 33  2  0  0  0  0
 35 32  1  0  0  0  0
 30 28  2  0  0  0  0
 35 29  2  0  0  0  0
M  END
>  <Mol Weight>
578.446

>  <Formula>
C17H11F9O6S3

>  <chembl_id>
CHEMBL12005

$$$$

  Mrv0541 06201412482D          

 41 44  0  0  0  0            999 V2000
    5.0089   -0.4797    0.0000 S   0  0  0  0  0  0  0  0  0  0  0  0
    0.7299   -0.4797    0.0000 N   0  0  0  0  0  0  0  0  0  0  0  0
   -0.0208   -0.1418    0.0000 C   0  0  0  0  0  0  0  0  0  0  0  0
    5.7179    0.7632    0.0000 C   0  0  0  0  0  0  0  0  0  0  0  0
    5.0089    0.3461    0.0000 N   0  0  0  0  0  0  0  0  0  0  0  0
   -0.1627   -1.4681    0.0000 N   0  0  0  0  0  0  0  0  0  0  0  0
   -0.5713   -0.6673    0.0000 C   0  0  0  0  0  0  0  0  0  0  0  0
    0.6423   -1.2929    0.0000 C   0  0  0  0  0  0  0  0  0  0  0  0
    5.7930    1.5848    0.0000 C   0  0  0  0  0  0  0  0  0  0  0  0
    7.0191    1.0510    0.0000 N   0  0  0  0  0  0  0  0  0  0  0  0
    5.0172   -1.3054    0.0000 C   0  0  0  0  0  0  0  0  0  0  0  0
    6.4728    0.4337    0.0000 O   0  0  0  0  0  0  0  0  0  0  0  0
    4.3041   -1.7183    0.0000 C   0  0  0  0  0  0  0  0  0  0  0  0
    3.5909   -1.3054    0.0000 C   0  0  0  0  0  0  0  0  0  0  0  0
   -0.1627    0.6714    0.0000 C   0  0  0  0  0  0  0  0  0  0  0  0
    6.5979    1.7642    0.0000 C   0  0  0  0  0  0  0  0  0  0  0  0
    2.8694   -1.7183    0.0000 C   0  0  0  0  0  0  0  0  0  0  0  0
    1.4431   -0.0668    0.0000 C   0  0  0  0  0  0  0  0  0  0  0  0
    4.2958   -0.0751    0.0000 O   0  0  0  0  0  0  0  0  0  0  0  0
    5.7221   -0.0668    0.0000 O   0  0  0  0  0  0  0  0  0  0  0  0
    3.5909   -0.4797    0.0000 C   0  0  0  0  0  0  0  0  0  0  0  0
    2.1562   -1.3054    0.0000 C   0  0  0  0  0  0  0  0  0  0  0  0
    2.1562   -0.4797    0.0000 C   0  0  0  0  0  0  0  0  0  0  0  0
   -0.9342    0.9592    0.0000 O   0  0  0  0  0  0  0  0  0  0  0  0
    0.4754    1.2011    0.0000 N   0  0  0  0  0  0  0  0  0  0  0  0
    2.8694   -0.0668    0.0000 C   0  0  0  0  0  0  0  0  0  0  0  0
    5.1716    2.1353    0.0000 C   0  0  0  0  0  0  0  0  0  0  0  0
   -1.3846   -0.5297    0.0000 C   0  0  0  0  0  0  0  0  0  0  0  0
    1.0552   -2.0061    0.0000 C   0  0  0  0  0  0  0  0  0  0  0  0
    4.3041   -2.5441    0.0000 C   0  0  0  0  0  0  0  0  0  0  0  0
    2.8694   -2.5441    0.0000 C   0  0  0  0  0  0  0  0  0  0  0  0
    5.7304   -1.7141    0.0000 C   0  0  0  0  0  0  0  0  0  0  0  0
    6.9233    2.5232    0.0000 C   0  0  0  0  0  0  0  0  0  0  0  0
    2.1562   -2.9570    0.0000 O   0  0  0  0  0  0  0  0  0  0  0  0
    2.1562   -3.7828    0.0000 C   0  0  0  0  0  0  0  0  0  0  0  0
    0.6381   -2.7193    0.0000 C   0  0  0  0  0  0  0  0  0  0  0  0
   -1.6724    0.2460    0.0000 C   0  0  0  0  0  0  0  0  0  0  0  0
    5.0215   -2.9570    0.0000 C   0  0  0  0  0  0  0  0  0  0  0  0
    5.7346   -2.5441    0.0000 C   0  0  0  0  0  0  0  0  0  0  0  0
    1.4431   -4.1957    0.0000 C   0  0  0  0  0  0  0  0  0  0  0  0
   -0.1877   -2.7193    0.0000 C   0  0  0  0  0  0  0  0  0  0  0  0
  2 18  1  0  0  0  0
  3  2  1  0  0  0  0
  4  5  1  0  0  0  0
  5  1  1  0  0  0  0
  6  8  2  0  0  0  0
  7  3  2  0  0  0  0
  8  2  1  0  0  0  0
  9  4  2  0  0  0  0
 10 12  1  0  0  0  0
 11  1  1  0  0  0  0
 12  4  1  0  0  0  0
 13 11  1  0  0  0  0
 14 13  1  0  0  0  0
 15  3  1  0  0  0  0
 16  9  1  0  0  0  0
 17 14  2  0  0  0  0
 18 23  1  0  0  0  0
 19  1  2  0  0  0  0
 20  1  2  0  0  0  0
 21 14  1  0  0  0  0
 22 17  1  0  0  0  0
 23 26  1  0  0  0  0
 24 15  2  0  0  0  0
 25 15  1  0  0  0  0
 26 21  2  0  0  0  0
 27  9  1  0  0  0  0
 28  7  1  0  0  0  0
 29  8  1  0  0  0  0
 30 13  2  0  0  0  0
 31 17  1  0  0  0  0
 32 11  2  0  0  0  0
 33 16  1  0  0  0  0
 34 31  1  0  0  0  0
 35 34  1  0  0  0  0
 36 29  1  0  0  0  0
 37 28  1  0  0  0  0
 38 39  2  0  0  0  0
 39 32  1  0  0  0  0
 40 35  1  0  0  0  0
 41 36  1  0  0  0  0
 38 30  1  0  0  0  0
 16 10  2  0  0  0  0
 22 23  2  0  0  0  0
  6  7  1  0  0  0  0
M  END
>  <Mol Weight>
579.71

>  <Formula>
C30H37N5O5S

>  <chembl_id>
CHEMBL12175

$$$$

  Mrv0541 06201412482D          

 42 44  0  0  0  0            999 V2000
    9.1973   -6.3442    0.0000 C   0  0  0  0  0  0  0  0  0  0  0  0
    9.1944   -7.1679    0.0000 C   0  0  0  0  0  0  0  0  0  0  0  0
    9.9087   -7.5792    0.0000 C   0  0  0  0  0  0  0  0  0  0  0  0
   10.6235   -7.1655    0.0000 C   0  0  0  0  0  0  0  0  0  0  0  0
   10.6195   -6.3363    0.0000 C   0  0  0  0  0  0  0  0  0  0  0  0
    9.9047   -5.9287    0.0000 C   0  0  0  0  0  0  0  0  0  0  0  0
    2.0486   -6.3499    0.0000 C   0  0  0  0  0  0  0  0  0  0  0  0
    2.0474   -7.1773    0.0000 C   0  0  0  0  0  0  0  0  0  0  0  0
    2.7623   -7.5902    0.0000 C   0  0  0  0  0  0  0  0  0  0  0  0
    3.4787   -7.1768    0.0000 C   0  0  0  0  0  0  0  0  0  0  0  0
    3.4758   -6.3463    0.0000 C   0  0  0  0  0  0  0  0  0  0  0  0
    2.7605   -5.9372    0.0000 N   0  0  0  0  0  0  0  0  0  0  0  0
    1.3340   -5.9376    0.0000 C   0  0  0  0  0  0  0  0  0  0  0  0
    1.3327   -7.5892    0.0000 C   0  0  0  0  0  0  0  0  0  0  0  0
    1.3320   -8.4142    0.0000 O   0  0  0  0  0  0  0  0  0  0  0  0
    4.1938   -7.5882    0.0000 C   0  0  0  0  0  0  0  0  0  0  0  0
    4.1951   -8.4132    0.0000 O   0  0  0  0  0  0  0  0  0  0  0  0
    4.9076   -7.1746    0.0000 N   0  0  0  0  0  0  0  0  0  0  0  0
    5.6228   -7.5860    0.0000 C   0  0  2  0  0  0  0  0  0  0  0  0
    6.3366   -7.1723    0.0000 C   0  0  1  0  0  0  0  0  0  0  0  0
    5.6241   -8.4110    0.0000 C   0  0  0  0  0  0  0  0  0  0  0  0
    6.3392   -8.8223    0.0000 C   0  0  0  0  0  0  0  0  0  0  0  0
    6.3361   -9.6469    0.0000 C   0  0  0  0  0  0  0  0  0  0  0  0
    7.0503  -10.0582    0.0000 C   0  0  0  0  0  0  0  0  0  0  0  0
    7.7651   -9.6445    0.0000 C   0  0  0  0  0  0  0  0  0  0  0  0
    7.7612   -8.8152    0.0000 C   0  0  0  0  0  0  0  0  0  0  0  0
    7.0463   -8.4077    0.0000 C   0  0  0  0  0  0  0  0  0  0  0  0
    7.0517   -7.5837    0.0000 C   0  0  0  0  0  0  0  0  0  0  0  0
    6.3353   -6.3473    0.0000 O   0  0  0  0  0  0  0  0  0  0  0  0
    7.7655   -7.1701    0.0000 N   0  0  0  0  0  0  0  0  0  0  0  0
    2.7621   -8.4152    0.0000 C   0  0  0  0  0  0  0  0  0  0  0  0
    2.7580   -5.1122    0.0000 C   0  0  0  0  0  0  0  0  0  0  0  0
    2.0656   -4.6513    0.0000 C   0  0  0  0  0  0  0  0  0  0  0  0
    2.0432   -3.8267    0.0000 O   0  0  0  0  0  0  0  0  0  0  0  0
    1.3260   -5.0237    0.0000 O   0  0  0  0  0  0  0  0  0  0  0  0
    2.7435   -3.3907    0.0000 C   0  0  0  0  0  0  0  0  0  0  0  0
    3.4713   -3.7791    0.0000 C   0  0  0  0  0  0  0  0  0  0  0  0
    2.7160   -2.5661    0.0000 C   0  0  0  0  0  0  0  0  0  0  0  0
    0.6185   -7.1762    0.0000 C   0  0  0  0  0  0  0  0  0  0  0  0
    8.4806   -7.5815    0.0000 C   0  0  0  0  0  0  0  0  0  0  0  0
    9.8994   -5.1037    0.0000 O   0  0  0  0  0  0  0  0  0  0  0  0
   10.6112   -4.6866    0.0000 C   0  0  0  0  0  0  0  0  0  0  0  0
  1  2  2  0  0  0  0
  2  3  1  0  0  0  0
  3  4  2  0  0  0  0
  4  5  1  0  0  0  0
 25 26  1  0  0  0  0
  8  9  1  0  0  0  0
 26 27  2  0  0  0  0
 27 22  1  0  0  0  0
 10 16  1  0  0  0  0
 20 28  1  0  0  0  0
 11 12  1  0  0  0  0
 20 29  1  6  0  0  0
 16 17  2  0  0  0  0
 28 30  1  0  0  0  0
 12  7  1  0  0  0  0
 16 18  1  0  0  0  0
  9 31  1  0  0  0  0
  7  8  2  0  0  0  0
 12 32  1  0  0  0  0
 18 19  1  0  0  0  0
 32 33  1  0  0  0  0
 19 20  1  0  0  0  0
 33 34  1  0  0  0  0
 33 35  2  0  0  0  0
  9 10  1  0  0  0  0
 34 36  1  0  0  0  0
 19 21  1  6  0  0  0
 36 37  1  0  0  0  0
  7 13  1  0  0  0  0
 36 38  1  0  0  0  0
 21 22  1  0  0  0  0
 22 23  2  0  0  0  0
  8 14  1  0  0  0  0
 23 24  1  0  0  0  0
 10 11  2  0  0  0  0
 24 25  2  0  0  0  0
 14 39  1  0  0  0  0
 14 15  2  0  0  0  0
  5  6  2  0  0  0  0
 30 40  1  0  0  0  0
 40  2  1  0  0  0  0
  6  1  1  0  0  0  0
  6 41  1  0  0  0  0
 41 42  1  0  0  0  0
M  END
>  <Mol Weight>
577.711

>  <Formula>
C33H43N3O6

>  <chembl_id>
CHEMBL1163421

$$$$

  Mrv0541 06201412482D          

 39 43  0  0  0  0            999 V2000
    0.4792   -3.3417    0.0000 S   0  0  0  0  0  0  0  0  0  0  0  0
    9.0417   -2.5250    0.0000 C   0  0  0  0  0  0  0  0  0  0  0  0
    8.3292   -2.1042    0.0000 C   0  0  0  0  0  0  0  0  0  0  0  0
    7.6167   -2.5167    0.0000 N   0  0  0  0  0  0  0  0  0  0  0  0
    9.7625   -2.1167    0.0000 C   0  0  0  0  0  0  0  0  0  0  0  0
   -0.3458   -3.3375    0.0000 C   0  0  0  0  0  0  0  0  0  0  0  0
    5.4792   -3.7542    0.0000 N   0  0  0  0  0  0  0  0  0  0  0  0
    1.1917   -3.7500    0.0000 C   0  0  0  0  0  0  0  0  0  0  0  0
   -0.7500   -2.6167    0.0000 C   0  0  0  0  0  0  0  0  0  0  0  0
    0.4792   -4.1667    0.0000 O   0  0  0  0  0  0  0  0  0  0  0  0
    0.4792   -2.5167    0.0000 O   0  0  0  0  0  0  0  0  0  0  0  0
    6.1917   -3.3417    0.0000 C   0  0  0  0  0  0  0  0  0  0  0  0
    6.9042   -3.7542    0.0000 C   0  0  0  0  0  0  0  0  0  0  0  0
    6.1875   -2.5167    0.0000 C   0  0  0  0  0  0  0  0  0  0  0  0
    6.9042   -2.1042    0.0000 C   0  0  0  0  0  0  0  0  0  0  0  0
    7.6125   -3.3417    0.0000 C   0  0  0  0  0  0  0  0  0  0  0  0
    8.3292   -1.2792    0.0000 O   0  0  0  0  0  0  0  0  0  0  0  0
    4.7667   -3.3417    0.0000 C   0  0  0  0  0  0  0  0  0  0  0  0
    5.4750   -4.5750    0.0000 C   0  0  0  0  0  0  0  0  0  0  0  0
   10.4667   -2.5250    0.0000 C   0  0  0  0  0  0  0  0  0  0  0  0
    1.1917   -4.5792    0.0000 C   0  0  0  0  0  0  0  0  0  0  0  0
    1.9042   -3.3375    0.0000 C   0  0  0  0  0  0  0  0  0  0  0  0
    9.7625   -1.2917    0.0000 N   0  0  0  0  0  0  0  0  0  0  0  0
   -1.5750   -2.6125    0.0000 C   0  0  0  0  0  0  0  0  0  0  0  0
    9.0375   -3.3417    0.0000 C   0  0  0  0  0  0  0  0  0  0  0  0
    2.6250   -4.5792    0.0000 C   0  0  0  0  0  0  0  0  0  0  0  0
    3.3417   -4.9917    0.0000 C   0  0  0  0  0  0  0  0  0  0  0  0
    1.9042   -4.9917    0.0000 C   0  0  0  0  0  0  0  0  0  0  0  0
    2.6250   -3.7500    0.0000 C   0  0  0  0  0  0  0  0  0  0  0  0
    4.0500   -3.7500    0.0000 C   0  0  0  0  0  0  0  0  0  0  0  0
    4.7667   -4.9875    0.0000 C   0  0  0  0  0  0  0  0  0  0  0  0
   -1.9833   -1.8917    0.0000 Cl  0  0  0  0  0  0  0  0  0  0  0  0
    4.0542   -4.5750    0.0000 C   0  0  0  0  0  0  0  0  0  0  0  0
   -0.7583   -4.0417    0.0000 C   0  0  0  0  0  0  0  0  0  0  0  0
    9.7500   -3.7625    0.0000 C   0  0  0  0  0  0  0  0  0  0  0  0
   -1.5833   -4.0417    0.0000 C   0  0  0  0  0  0  0  0  0  0  0  0
   10.4667   -3.3500    0.0000 C   0  0  0  0  0  0  0  0  0  0  0  0
   11.1792   -2.1167    0.0000 C   0  0  0  0  0  0  0  0  0  0  0  0
   -1.9958   -3.3250    0.0000 C   0  0  0  0  0  0  0  0  0  0  0  0
  2  3  1  0  0  0  0
  3  4  1  0  0  0  0
  4 15  1  0  0  0  0
  5  2  1  0  0  0  0
  6  1  1  0  0  0  0
  7 19  1  0  0  0  0
  8  1  1  0  0  0  0
  9  6  2  0  0  0  0
 10  1  2  0  0  0  0
 11  1  2  0  0  0  0
 12  7  1  0  0  0  0
 13 12  1  0  0  0  0
 14 12  1  0  0  0  0
 15 14  1  0  0  0  0
 16 13  1  0  0  0  0
 17  3  2  0  0  0  0
 18 30  1  0  0  0  0
 19 31  1  0  0  0  0
 20  5  2  0  0  0  0
 21  8  2  0  0  0  0
 22  8  1  0  0  0  0
 23  5  1  0  0  0  0
 24  9  1  0  0  0  0
 25  2  2  0  0  0  0
 26 29  1  0  0  0  0
 27 26  1  0  0  0  0
 28 21  1  0  0  0  0
 29 22  2  0  0  0  0
 30 33  1  0  0  0  0
 31 33  1  0  0  0  0
 32 24  1  0  0  0  0
 33 27  1  0  0  0  0
 34  6  1  0  0  0  0
 35 25  1  0  0  0  0
 36 34  2  0  0  0  0
 37 35  2  0  0  0  0
 38 20  1  0  0  0  0
 39 36  1  0  0  0  0
 28 26  2  0  0  0  0
 39 24  2  0  0  0  0
  7 18  1  0  0  0  0
 16  4  1  0  0  0  0
 37 20  1  0  0  0  0
M  END
>  <Mol Weight>
566.154

>  <Formula>
C31H36ClN3O3S

>  <chembl_id>
CHEMBL12098

$$$$

  Mrv0541 06201412482D          

 38 40  0  0  0  0            999 V2000
    2.5845   -3.1941    0.0000 S   0  0  0  0  0  0  0  0  0  0  0  0
    3.2985   -3.5991    0.0000 N   0  0  0  0  0  0  0  0  0  0  0  0
    3.2985   -4.4259    0.0000 C   0  0  0  0  0  0  0  0  0  0  0  0
    1.8664   -3.6075    0.0000 C   0  0  0  0  0  0  0  0  0  0  0  0
    2.5803   -2.3674    0.0000 O   0  0  0  0  0  0  0  0  0  0  0  0
    2.5803   -4.0125    0.0000 O   0  0  0  0  0  0  0  0  0  0  0  0
    2.5845   -4.8475    0.0000 N   0  0  0  0  0  0  0  0  0  0  0  0
    4.0208   -4.8392    0.0000 N   0  0  0  0  0  0  0  0  0  0  0  0
    6.1627   -3.5949    0.0000 C   0  0  0  0  0  0  0  0  0  0  0  0
   10.4591   -4.4091    0.0000 C   0  0  0  0  0  0  0  0  0  0  0  0
    4.0125   -3.1858    0.0000 C   0  0  0  0  0  0  0  0  0  0  0  0
   11.1731   -4.8225    0.0000 N   0  0  0  0  0  0  0  0  0  0  0  0
    6.1670   -4.4216    0.0000 O   0  0  0  0  0  0  0  0  0  0  0  0
    1.1566   -3.1983    0.0000 C   0  0  0  0  0  0  0  0  0  0  0  0
    1.8706   -4.4342    0.0000 C   0  0  0  0  0  0  0  0  0  0  0  0
   10.4508   -3.5741    0.0000 C   0  0  0  0  0  0  0  0  0  0  0  0
    9.7452   -4.8225    0.0000 C   0  0  0  0  0  0  0  0  0  0  0  0
    0.4426   -4.4384    0.0000 C   0  0  0  0  0  0  0  0  0  0  0  0
    5.4488   -3.1858    0.0000 O   0  0  0  0  0  0  0  0  0  0  0  0
   -0.2714   -4.8601    0.0000 N   0  0  0  0  0  0  0  0  0  0  0  0
    1.1649   -4.8517    0.0000 C   0  0  0  0  0  0  0  0  0  0  0  0
    0.4426   -3.6117    0.0000 C   0  0  0  0  0  0  0  0  0  0  0  0
    9.7368   -3.1691    0.0000 C   0  0  0  0  0  0  0  0  0  0  0  0
    9.0229   -4.4133    0.0000 C   0  0  0  0  0  0  0  0  0  0  0  0
    9.0229   -3.5866    0.0000 C   0  0  0  0  0  0  0  0  0  0  0  0
    4.7265   -3.5991    0.0000 C   0  0  0  0  0  0  0  0  0  0  0  0
   12.6053   -3.1691    0.0000 Cl  0  0  0  0  0  0  0  0  0  0  0  0
   10.4508   -6.8809    0.0000 Cl  0  0  0  0  0  0  0  0  0  0  0  0
    3.2985   -6.0876    0.0000 C   0  0  0  0  0  0  0  0  0  0  0  0
    4.0208   -5.6742    0.0000 C   0  0  0  0  0  0  0  0  0  0  0  0
    2.5845   -5.6742    0.0000 C   0  0  0  0  0  0  0  0  0  0  0  0
    6.8767   -3.1816    0.0000 C   0  0  0  0  0  0  0  0  0  0  0  0
    7.5949   -3.5866    0.0000 C   0  0  0  0  0  0  0  0  0  0  0  0
   11.1648   -5.6492    0.0000 C   0  0  0  0  0  0  0  0  0  0  0  0
   11.8871   -4.4091    0.0000 C   0  0  0  0  0  0  0  0  0  0  0  0
    8.3089   -3.1733    0.0000 C   0  0  0  0  0  0  0  0  0  0  0  0
   10.4508   -6.0542    0.0000 C   0  0  0  0  0  0  0  0  0  0  0  0
   11.8913   -3.5824    0.0000 C   0  0  0  0  0  0  0  0  0  0  0  0
  2  1  1  0  0  0  0
  3  2  1  0  0  0  0
  4  1  1  0  0  0  0
  5  1  2  0  0  0  0
  6  1  2  0  0  0  0
  7  3  1  0  0  0  0
  8  3  2  0  0  0  0
  9 19  1  0  0  0  0
 10 17  2  0  0  0  0
 11  2  1  0  0  0  0
 12 10  1  0  0  0  0
 13  9  2  0  0  0  0
 14  4  2  0  0  0  0
 15  4  1  0  0  0  0
 16 23  2  0  0  0  0
 17 24  1  0  0  0  0
 18 21  1  0  0  0  0
 19 26  1  0  0  0  0
 20 18  1  0  0  0  0
 21 15  2  0  0  0  0
 22 14  1  0  0  0  0
 23 25  1  0  0  0  0
 24 25  2  0  0  0  0
 25 36  1  0  0  0  0
 26 11  1  0  0  0  0
 27 38  1  0  0  0  0
 28 37  1  0  0  0  0
 29 30  2  0  0  0  0
 30  8  1  0  0  0  0
 31  7  2  0  0  0  0
 32  9  1  0  0  0  0
 33 32  1  0  0  0  0
 34 12  1  0  0  0  0
 35 12  1  0  0  0  0
 36 33  1  0  0  0  0
 37 34  1  0  0  0  0
 38 35  1  0  0  0  0
 22 18  2  0  0  0  0
 31 29  1  0  0  0  0
 16 10  1  0  0  0  0
M  END
>  <Mol Weight>
580.526

>  <Formula>
C26H31Cl2N5O4S

>  <chembl_id>
CHEMBL12185

$$$$

  Mrv0541 06201412482D          

 43 46  0  0  1  0            999 V2000
    2.5266   -4.0391    0.0000 N   0  0  0  0  0  0  0  0  0  0  0  0
    3.2312   -2.8016    0.0000 C   0  0  0  0  0  0  0  0  0  0  0  0
    3.2312   -3.6266    0.0000 C   0  0  2  0  0  0  0  0  0  0  0  0
    4.0562   -2.8016    0.0000 N   0  0  0  0  0  0  0  0  0  0  0  0
    1.8047   -3.6266    0.0000 C   0  0  0  0  0  0  0  0  0  0  0  0
    0.3781   -3.6266    0.0000 C   0  0  2  0  0  0  0  0  0  0  0  0
   -0.3380   -4.0391    0.0000 N   0  0  0  0  0  0  0  0  0  0  0  0
   -1.0484   -3.6151    0.0000 C   0  0  0  0  0  0  0  0  0  0  0  0
    1.0886   -4.0391    0.0000 C   0  0  2  0  0  0  0  0  0  0  0  0
    3.9417   -4.0391    0.0000 C   0  0  0  0  0  0  0  0  0  0  0  0
   -1.7645   -4.0276    0.0000 C   0  0  0  0  0  0  0  0  0  0  0  0
    2.5266   -4.8641    0.0000 C   0  0  0  0  0  0  0  0  0  0  0  0
   -2.4750   -3.6151    0.0000 C   0  0  0  0  0  0  0  0  0  0  0  0
    3.2198   -1.9766    0.0000 O   0  0  0  0  0  0  0  0  0  0  0  0
    0.3781   -2.8016    0.0000 C   0  0  0  0  0  0  0  0  0  0  0  0
    4.8812   -2.8016    0.0000 C   0  0  0  0  0  0  0  0  0  0  0  0
    7.5109   -6.1016    0.0000 N   0  0  0  0  0  0  0  0  0  0  0  0
   -1.0484   -2.7901    0.0000 O   0  0  0  0  0  0  0  0  0  0  0  0
    3.2312   -5.2766    0.0000 C   0  0  0  0  0  0  0  0  0  0  0  0
    3.9417   -4.8641    0.0000 C   0  0  1  0  0  0  0  0  0  0  0  0
    4.6578   -5.2766    0.0000 O   0  0  0  0  0  0  0  0  0  0  0  0
    1.0828   -4.8641    0.0000 O   0  0  0  0  0  0  0  0  0  0  0  0
   -3.1797   -4.0391    0.0000 C   0  0  0  0  0  0  0  0  0  0  0  0
    1.1000   -2.3891    0.0000 C   0  0  0  0  0  0  0  0  0  0  0  0
    5.3797   -4.8641    0.0000 C   0  0  0  0  0  0  0  0  0  0  0  0
    6.0844   -5.2766    0.0000 C   0  0  0  0  0  0  0  0  0  0  0  0
    7.5109   -5.2766    0.0000 C   0  0  0  0  0  0  0  0  0  0  0  0
    6.7948   -6.5141    0.0000 C   0  0  0  0  0  0  0  0  0  0  0  0
    4.8698   -3.6266    0.0000 C   0  0  0  0  0  0  0  0  0  0  0  0
    5.7062   -2.8016    0.0000 C   0  0  0  0  0  0  0  0  0  0  0  0
    4.8698   -1.9766    0.0000 C   0  0  0  0  0  0  0  0  0  0  0  0
    6.0844   -6.1016    0.0000 C   0  0  0  0  0  0  0  0  0  0  0  0
    6.7948   -4.8641    0.0000 C   0  0  0  0  0  0  0  0  0  0  0  0
   -3.1797   -4.8641    0.0000 C   0  0  0  0  0  0  0  0  0  0  0  0
   -3.9016   -3.6266    0.0000 C   0  0  0  0  0  0  0  0  0  0  0  0
    1.1000   -1.5698    0.0000 C   0  0  0  0  0  0  0  0  0  0  0  0
    1.8105   -2.8073    0.0000 C   0  0  0  0  0  0  0  0  0  0  0  0
   -3.9016   -5.2823    0.0000 C   0  0  0  0  0  0  0  0  0  0  0  0
   -4.6062   -4.0391    0.0000 C   0  0  0  0  0  0  0  0  0  0  0  0
    2.5266   -2.4062    0.0000 C   0  0  0  0  0  0  0  0  0  0  0  0
    1.8105   -1.1573    0.0000 C   0  0  0  0  0  0  0  0  0  0  0  0
    2.5266   -1.5698    0.0000 C   0  0  0  0  0  0  0  0  0  0  0  0
   -4.6062   -4.8641    0.0000 C   0  0  0  0  0  0  0  0  0  0  0  0
  3  2  1  6  0  0  0
  3  1  1  0  0  0  0
  4  2  1  0  0  0  0
  5  1  1  0  0  0  0
  6  9  1  0  0  0  0
  7  6  1  0  0  0  0
  8  7  1  0  0  0  0
  9  5  1  0  0  0  0
 10  3  1  0  0  0  0
 11  8  1  0  0  0  0
 12  1  1  0  0  0  0
 13 11  2  0  0  0  0
 14  2  2  0  0  0  0
  6 15  1  1  0  0  0
 16  4  1  0  0  0  0
 17 27  1  0  0  0  0
 18  8  2  0  0  0  0
 19 12  1  0  0  0  0
 20 19  1  0  0  0  0
 20 21  1  6  0  0  0
  9 22  1  1  0  0  0
 23 13  1  0  0  0  0
 24 15  1  0  0  0  0
 25 21  1  0  0  0  0
 26 25  1  0  0  0  0
 27 33  2  0  0  0  0
 28 32  1  0  0  0  0
 29 16  1  0  0  0  0
 30 16  1  0  0  0  0
 31 16  1  0  0  0  0
 32 26  2  0  0  0  0
 33 26  1  0  0  0  0
 34 23  1  0  0  0  0
 35 23  2  0  0  0  0
 36 24  1  0  0  0  0
 37 24  2  0  0  0  0
 38 34  2  0  0  0  0
 39 35  1  0  0  0  0
 40 37  1  0  0  0  0
 41 36  2  0  0  0  0
 42 40  2  0  0  0  0
 43 39  2  0  0  0  0
 20 10  1  0  0  0  0
 28 17  2  0  0  0  0
 41 42  1  0  0  0  0
 38 43  1  0  0  0  0
M  END
>  <Mol Weight>
584.7483

>  <Formula>
C35H44N4O4

>  <chembl_id>
CHEMBL12161

$$$$

  Mrv0541 06201412482D          

 43 46  0  0  0  0            999 V2000
    8.1777   -6.9166    0.0000 C   0  0  0  0  0  0  0  0  0  0  0  0
    8.1766   -7.7440    0.0000 C   0  0  0  0  0  0  0  0  0  0  0  0
    8.8914   -8.1569    0.0000 C   0  0  0  0  0  0  0  0  0  0  0  0
    9.6078   -7.7435    0.0000 C   0  0  0  0  0  0  0  0  0  0  0  0
    9.6050   -6.9130    0.0000 C   0  0  0  0  0  0  0  0  0  0  0  0
    8.8896   -6.5039    0.0000 N   0  0  0  0  0  0  0  0  0  0  0  0
   10.3179   -6.4978    0.0000 C   0  0  0  0  0  0  0  0  0  0  0  0
    7.4632   -6.5043    0.0000 C   0  0  0  0  0  0  0  0  0  0  0  0
    7.4618   -8.1559    0.0000 C   0  0  0  0  0  0  0  0  0  0  0  0
    7.4611   -8.9809    0.0000 O   0  0  0  0  0  0  0  0  0  0  0  0
   10.3230   -8.1549    0.0000 C   0  0  0  0  0  0  0  0  0  0  0  0
   10.3242   -8.9799    0.0000 O   0  0  0  0  0  0  0  0  0  0  0  0
   11.0368   -7.7413    0.0000 N   0  0  0  0  0  0  0  0  0  0  0  0
   11.7519   -8.1527    0.0000 C   0  0  2  0  0  0  0  0  0  0  0  0
   12.4657   -7.7390    0.0000 C   0  0  1  0  0  0  0  0  0  0  0  0
   11.7532   -8.9777    0.0000 C   0  0  0  0  0  0  0  0  0  0  0  0
   12.4683   -9.3890    0.0000 C   0  0  0  0  0  0  0  0  0  0  0  0
   12.4652  -10.2136    0.0000 C   0  0  0  0  0  0  0  0  0  0  0  0
   13.1795  -10.6249    0.0000 C   0  0  0  0  0  0  0  0  0  0  0  0
   13.8943  -10.2112    0.0000 C   0  0  0  0  0  0  0  0  0  0  0  0
   13.8903   -9.3819    0.0000 C   0  0  0  0  0  0  0  0  0  0  0  0
   13.1755   -8.9744    0.0000 C   0  0  0  0  0  0  0  0  0  0  0  0
   13.1808   -8.1504    0.0000 C   0  0  0  0  0  0  0  0  0  0  0  0
   12.4644   -6.9140    0.0000 O   0  0  0  0  0  0  0  0  0  0  0  0
   13.8947   -7.7368    0.0000 N   0  0  0  0  0  0  0  0  0  0  0  0
   14.6098   -8.1482    0.0000 C   0  0  0  0  0  0  0  0  0  0  0  0
    8.8912   -8.9819    0.0000 C   0  0  0  0  0  0  0  0  0  0  0  0
    8.8654   -5.6792    0.0000 C   0  0  0  0  0  0  0  0  0  0  0  0
    8.1610   -5.2370    0.0000 C   0  0  0  0  0  0  0  0  0  0  0  0
    8.1819   -4.4125    0.0000 N   0  0  0  0  0  0  0  0  0  0  0  0
    7.4316   -5.6286    0.0000 O   0  0  0  0  0  0  0  0  0  0  0  0
    6.7476   -7.7429    0.0000 O   0  0  0  0  0  0  0  0  0  0  0  0
    6.7483   -6.9179    0.0000 C   0  0  0  0  0  0  0  0  0  0  0  0
    6.0341   -6.5048    0.0000 C   0  0  0  0  0  0  0  0  0  0  0  0
    6.0342   -5.6794    0.0000 C   0  0  0  0  0  0  0  0  0  0  0  0
    5.3291   -5.2664    0.0000 C   0  0  0  0  0  0  0  0  0  0  0  0
    4.6115   -5.6784    0.0000 C   0  0  0  0  0  0  0  0  0  0  0  0
    4.6095   -6.5076    0.0000 C   0  0  0  0  0  0  0  0  0  0  0  0
    5.3290   -6.9169    0.0000 C   0  0  0  0  0  0  0  0  0  0  0  0
    8.9066   -4.0183    0.0000 C   0  0  0  0  0  0  0  0  0  0  0  0
    7.4782   -3.9821    0.0000 C   0  0  0  0  0  0  0  0  0  0  0  0
   15.0248   -8.8593    0.0000 C   0  0  0  0  0  0  0  0  0  0  0  0
   15.4362   -8.1442    0.0000 C   0  0  0  0  0  0  0  0  0  0  0  0
  2  3  1  0  0  0  0
 21 22  2  0  0  0  0
 22 17  1  0  0  0  0
  4 11  1  0  0  0  0
 15 23  1  0  0  0  0
  5  6  1  0  0  0  0
 15 24  1  6  0  0  0
 11 12  2  0  0  0  0
 23 25  1  0  0  0  0
  6  1  1  0  0  0  0
 25 26  1  0  0  0  0
 11 13  1  0  0  0  0
  3 27  1  0  0  0  0
  1  2  2  0  0  0  0
  6 28  1  0  0  0  0
 13 14  1  0  0  0  0
 28 29  1  0  0  0  0
  5  7  1  0  0  0  0
 14 15  1  0  0  0  0
 29 30  1  0  0  0  0
 29 31  2  0  0  0  0
  3  4  1  0  0  0  0
  9 32  1  0  0  0  0
 14 16  1  6  0  0  0
 32 33  1  0  0  0  0
  1  8  1  0  0  0  0
 33 34  1  0  0  0  0
 16 17  1  0  0  0  0
 34 35  2  0  0  0  0
 35 36  1  0  0  0  0
 17 18  2  0  0  0  0
 36 37  2  0  0  0  0
  2  9  1  0  0  0  0
 37 38  1  0  0  0  0
 18 19  1  0  0  0  0
 38 39  2  0  0  0  0
 39 34  1  0  0  0  0
  4  5  2  0  0  0  0
 30 40  1  0  0  0  0
 19 20  2  0  0  0  0
 30 41  1  0  0  0  0
 42 26  1  0  0  0  0
 43 42  1  0  0  0  0
 26 43  1  0  0  0  0
  9 10  2  0  0  0  0
 20 21  1  0  0  0  0
M  END
>  <Mol Weight>
588.737

>  <Formula>
C34H44N4O5

>  <chembl_id>
CHEMBL1163423

$$$$

  Mrv0541 06201412482D          

 41 45  0  0  0  0            999 V2000
    4.1962   -0.0042    0.0000 S   0  0  0  0  0  0  0  0  0  0  0  0
   -0.0960   -0.0042    0.0000 N   0  0  0  0  0  0  0  0  0  0  0  0
    4.9018    1.2401    0.0000 C   0  0  0  0  0  0  0  0  0  0  0  0
   -0.8476    0.3340    0.0000 C   0  0  0  0  0  0  0  0  0  0  0  0
    4.1879    0.8225    0.0000 N   0  0  0  0  0  0  0  0  0  0  0  0
   -0.9853   -0.9938    0.0000 N   0  0  0  0  0  0  0  0  0  0  0  0
   -1.3987   -0.1921    0.0000 C   0  0  0  0  0  0  0  0  0  0  0  0
   -0.1754   -0.8184    0.0000 C   0  0  0  0  0  0  0  0  0  0  0  0
    4.9770    2.0626    0.0000 C   0  0  0  0  0  0  0  0  0  0  0  0
    6.2045    1.5282    0.0000 N   0  0  0  0  0  0  0  0  0  0  0  0
    4.2004   -0.8309    0.0000 C   0  0  0  0  0  0  0  0  0  0  0  0
    5.6534    0.9102    0.0000 O   0  0  0  0  0  0  0  0  0  0  0  0
    3.4864   -1.2443    0.0000 C   0  0  0  0  0  0  0  0  0  0  0  0
    2.7724   -0.8309    0.0000 C   0  0  0  0  0  0  0  0  0  0  0  0
    5.7787    2.2421    0.0000 C   0  0  0  0  0  0  0  0  0  0  0  0
    2.0542   -1.2443    0.0000 C   0  0  0  0  0  0  0  0  0  0  0  0
   -0.9227    1.0981    0.0000 C   0  0  0  0  0  0  0  0  0  0  0  0
    0.6263    0.4091    0.0000 C   0  0  0  0  0  0  0  0  0  0  0  0
    0.5762   -2.8100    0.0000 N   0  0  0  0  0  0  0  0  0  0  0  0
    3.4739    0.4008    0.0000 O   0  0  0  0  0  0  0  0  0  0  0  0
    4.9102    0.4091    0.0000 O   0  0  0  0  0  0  0  0  0  0  0  0
    2.7724   -0.0042    0.0000 C   0  0  0  0  0  0  0  0  0  0  0  0
    1.3152   -2.4426    0.0000 C   0  0  0  0  0  0  0  0  0  0  0  0
    1.3403   -0.8309    0.0000 C   0  0  0  0  0  0  0  0  0  0  0  0
    1.3403   -0.0042    0.0000 C   0  0  0  0  0  0  0  0  0  0  0  0
   -0.2714    1.4906    0.0000 O   0  0  0  0  0  0  0  0  0  0  0  0
    2.0542    0.4091    0.0000 C   0  0  0  0  0  0  0  0  0  0  0  0
    4.3590    2.6137    0.0000 C   0  0  0  0  0  0  0  0  0  0  0  0
    2.0542   -2.0710    0.0000 C   0  0  0  0  0  0  0  0  0  0  0  0
   -2.1502   -0.0919    0.0000 C   0  0  0  0  0  0  0  0  0  0  0  0
    0.2297   -1.5324    0.0000 C   0  0  0  0  0  0  0  0  0  0  0  0
    3.4864   -2.0710    0.0000 C   0  0  0  0  0  0  0  0  0  0  0  0
    4.9144   -1.2401    0.0000 C   0  0  0  0  0  0  0  0  0  0  0  0
    6.1126    3.0020    0.0000 C   0  0  0  0  0  0  0  0  0  0  0  0
   -1.5532    1.5114    0.0000 C   0  0  0  0  0  0  0  0  0  0  0  0
   -0.1837   -2.2463    0.0000 C   0  0  0  0  0  0  0  0  0  0  0  0
   -2.5511    0.5637    0.0000 C   0  0  0  0  0  0  0  0  0  0  0  0
    4.2004   -2.4843    0.0000 C   0  0  0  0  0  0  0  0  0  0  0  0
    4.9144   -2.0710    0.0000 C   0  0  0  0  0  0  0  0  0  0  0  0
   -2.2755    1.2776    0.0000 C   0  0  0  0  0  0  0  0  0  0  0  0
   -1.0104   -2.2463    0.0000 C   0  0  0  0  0  0  0  0  0  0  0  0
  2 18  1  0  0  0  0
  3  5  1  0  0  0  0
  4  2  1  0  0  0  0
  5  1  1  0  0  0  0
  6  8  2  0  0  0  0
  7  4  2  0  0  0  0
  8  2  1  0  0  0  0
  9  3  2  0  0  0  0
 10 12  1  0  0  0  0
 11  1  1  0  0  0  0
 12  3  1  0  0  0  0
 13 11  1  0  0  0  0
 14 13  1  0  0  0  0
 15  9  1  0  0  0  0
 16 14  2  0  0  0  0
 17  4  1  0  0  0  0
 18 25  1  0  0  0  0
 19 23  3  0  0  0  0
 20  1  2  0  0  0  0
 21  1  2  0  0  0  0
 22 14  1  0  0  0  0
 23 29  1  0  0  0  0
 24 16  1  0  0  0  0
 25 27  1  0  0  0  0
 26 17  2  0  0  0  0
 27 22  2  0  0  0  0
 28  9  1  0  0  0  0
 29 16  1  0  0  0  0
 30  7  1  0  0  0  0
 31  8  1  0  0  0  0
 32 13  2  0  0  0  0
 33 11  2  0  0  0  0
 34 15  1  0  0  0  0
 35 17  1  0  0  0  0
 36 31  1  0  0  0  0
 37 30  1  0  0  0  0
 38 39  2  0  0  0  0
 39 33  1  0  0  0  0
 40 35  1  0  0  0  0
 41 36  1  0  0  0  0
 38 32  1  0  0  0  0
 15 10  2  0  0  0  0
 24 25  2  0  0  0  0
  6  7  1  0  0  0  0
 40 37  1  0  0  0  0
M  END
>  <Mol Weight>
571.69

>  <Formula>
C31H33N5O4S

>  <chembl_id>
CHEMBL12144

$$$$

  Mrv0541 06201412482D          

 38 41  0  0  0  0            999 V2000
    5.4417   -7.4417    0.0000 S   0  0  0  0  0  0  0  0  0  0  0  0
    5.9292   -6.7667    0.0000 N   0  0  0  0  0  0  0  0  0  0  0  0
    5.4375   -6.1000    0.0000 C   0  0  0  0  0  0  0  0  0  0  0  0
    4.6542   -7.1917    0.0000 C   0  0  0  0  0  0  0  0  0  0  0  0
    4.6500   -6.3625    0.0000 C   0  0  0  0  0  0  0  0  0  0  0  0
    8.4125   -8.1792    0.0000 C   0  0  0  0  0  0  0  0  0  0  0  0
    6.7542   -6.7625    0.0000 C   0  0  0  0  0  0  0  0  0  0  0  0
    3.9292   -5.9500    0.0000 C   0  0  0  0  0  0  0  0  0  0  0  0
    7.9917   -7.4667    0.0000 C   0  0  0  0  0  0  0  0  0  0  0  0
    8.0042   -8.9000    0.0000 C   0  0  0  0  0  0  0  0  0  0  0  0
    5.0292   -8.1542    0.0000 O   0  0  0  0  0  0  0  0  0  0  0  0
    6.1542   -7.8542    0.0000 O   0  0  0  0  0  0  0  0  0  0  0  0
    7.1667   -7.4750    0.0000 O   0  0  0  0  0  0  0  0  0  0  0  0
    3.9292   -7.6042    0.0000 C   0  0  0  0  0  0  0  0  0  0  0  0
    3.2167   -6.3667    0.0000 C   0  0  0  0  0  0  0  0  0  0  0  0
    5.8417   -5.3792    0.0000 O   0  0  0  0  0  0  0  0  0  0  0  0
    9.2375   -8.1750    0.0000 C   0  0  0  0  0  0  0  0  0  0  0  0
    5.9542  -11.0542    0.0000 N   0  0  0  0  0  0  0  0  0  0  0  0
    3.2167   -7.1917    0.0000 C   0  0  0  0  0  0  0  0  0  0  0  0
    8.4167   -9.6042    0.0000 C   0  0  0  0  0  0  0  0  0  0  0  0
    8.4042   -6.7542    0.0000 O   0  0  0  0  0  0  0  0  0  0  0  0
    9.6542   -8.8792    0.0000 C   0  0  0  0  0  0  0  0  0  0  0  0
    9.2417   -9.6042    0.0000 C   0  0  0  0  0  0  0  0  0  0  0  0
    4.3000  -11.0542    0.0000 O   0  0  0  0  0  0  0  0  0  0  0  0
    7.1792   -8.8917    0.0000 Cl  0  0  0  0  0  0  0  0  0  0  0  0
    3.9292   -5.1250    0.0000 O   0  0  0  0  0  0  0  0  0  0  0  0
    9.6417   -7.4542    0.0000 Cl  0  0  0  0  0  0  0  0  0  0  0  0
    8.0125  -10.3250    0.0000 O   0  0  0  0  0  0  0  0  0  0  0  0
    2.5042   -7.6000    0.0000 O   0  0  0  0  0  0  0  0  0  0  0  0
    6.7792  -11.0500    0.0000 C   0  0  0  0  0  0  0  0  0  0  0  0
    7.1875  -10.3292    0.0000 C   0  0  0  0  0  0  0  0  0  0  0  0
    5.5375  -10.3375    0.0000 C   0  0  0  0  0  0  0  0  0  0  0  0
    5.5417  -11.7667    0.0000 C   0  0  0  0  0  0  0  0  0  0  0  0
    4.7167  -11.7750    0.0000 C   0  0  0  0  0  0  0  0  0  0  0  0
    4.7167  -10.3417    0.0000 C   0  0  0  0  0  0  0  0  0  0  0  0
    3.2167   -4.7167    0.0000 C   0  0  0  0  0  0  0  0  0  0  0  0
    2.5042   -8.4250    0.0000 C   0  0  0  0  0  0  0  0  0  0  0  0
    3.2125   -3.8917    0.0000 C   0  0  0  0  0  0  0  0  0  0  0  0
  2  1  1  0  0  0  0
  3  2  1  0  0  0  0
  4  1  1  0  0  0  0
  5  4  2  0  0  0  0
  6  9  1  0  0  0  0
  7  2  1  0  0  0  0
  8  5  1  0  0  0  0
  9 13  1  0  0  0  0
 10  6  2  0  0  0  0
 11  1  2  0  0  0  0
 12  1  2  0  0  0  0
 13  7  1  0  0  0  0
 14  4  1  0  0  0  0
 15 19  1  0  0  0  0
 16  3  2  0  0  0  0
 17  6  1  0  0  0  0
 18 30  1  0  0  0  0
 19 14  2  0  0  0  0
 20 10  1  0  0  0  0
 21  9  2  0  0  0  0
 22 17  2  0  0  0  0
 23 22  1  0  0  0  0
 24 34  1  0  0  0  0
 25 10  1  0  0  0  0
 26  8  1  0  0  0  0
 27 17  1  0  0  0  0
 28 20  1  0  0  0  0
 29 19  1  0  0  0  0
 30 31  1  0  0  0  0
 31 28  1  0  0  0  0
 32 18  1  0  0  0  0
 33 18  1  0  0  0  0
 34 33  1  0  0  0  0
 35 32  1  0  0  0  0
 36 26  1  0  0  0  0
 37 29  1  0  0  0  0
 38 36  1  0  0  0  0
  5  3  1  0  0  0  0
 15  8  2  0  0  0  0
 23 20  2  0  0  0  0
 24 35  1  0  0  0  0
M  END
>  <Mol Weight>
589.442

>  <Formula>
C24H26Cl2N2O9S

>  <chembl_id>
CHEMBL12082

$$$$

  Mrv0541 06201412482D          

 44 50  0  0  0  0            999 V2000
   17.6628    2.0062    0.0000 C   0  0  0  0  0  0  0  0  0  0  0  0
   16.9492    0.7649    0.0000 C   0  0  0  0  0  0  0  0  0  0  0  0
   16.9459    1.5899    0.0000 C   0  0  0  0  0  0  0  0  0  0  0  0
   16.1657    0.5069    0.0000 N   0  0  0  0  0  0  0  0  0  0  0  0
   15.6780    1.1724    0.0000 C   0  0  0  0  0  0  0  0  0  0  0  0
   16.1611    1.8373    0.0000 C   0  0  0  0  0  0  0  0  0  0  0  0
   15.8266    2.5859    0.0000 C   0  0  0  0  0  0  0  0  0  0  0  0
   15.0094    2.6709    0.0000 C   0  0  0  0  0  0  0  0  0  0  0  0
   14.5278    2.0012    0.0000 C   0  0  0  0  0  0  0  0  0  0  0  0
   14.8648    1.2552    0.0000 C   0  0  0  0  0  0  0  0  0  0  0  0
   18.3789    1.5967    0.0000 C   0  0  0  0  0  0  0  0  0  0  0  0
   18.3777    0.7675    0.0000 C   0  0  0  0  0  0  0  0  0  0  0  0
   17.6674    0.3530    0.0000 C   0  0  0  0  0  0  0  0  0  0  0  0
   17.6602    2.8319    0.0000 O   0  0  0  0  0  0  0  0  0  0  0  0
   19.0934    2.0105    0.0000 C   0  0  0  0  0  0  0  0  0  0  0  0
   19.8091    1.5987    0.0000 N   0  0  0  0  0  0  0  0  0  0  0  0
   20.5236    2.0124    0.0000 C   0  0  0  0  0  0  0  0  0  0  0  0
   20.5225    2.8381    0.0000 C   0  0  0  0  0  0  0  0  0  0  0  0
   19.8102    0.7730    0.0000 C   0  0  0  0  0  0  0  0  0  0  0  0
   20.5258    0.3610    0.0000 C   0  0  0  0  0  0  0  0  0  0  0  0
   20.5241   -0.4640    0.0000 C   0  0  0  0  0  0  0  0  0  0  0  0
   21.2388   -0.8757    0.0000 C   0  0  0  0  0  0  0  0  0  0  0  0
   21.2352    0.7762    0.0000 C   0  0  0  0  0  0  0  0  0  0  0  0
   21.2382    3.2483    0.0000 N   0  0  0  0  0  0  0  0  0  0  0  0
   21.2374    4.0752    0.0000 C   0  0  0  0  0  0  0  0  0  0  0  0
   20.5213    4.4882    0.0000 C   0  0  0  0  0  0  0  0  0  0  0  0
   19.8044    4.0724    0.0000 C   0  0  0  0  0  0  0  0  0  0  0  0
   19.8087    3.2442    0.0000 C   0  0  0  0  0  0  0  0  0  0  0  0
   21.9506    0.3680    0.0000 C   0  0  0  0  0  0  0  0  0  0  0  0
   21.9578   -0.4592    0.0000 C   0  0  0  0  0  0  0  0  0  0  0  0
   22.7468   -0.7080    0.0000 N   0  0  0  0  0  0  0  0  0  0  0  0
   22.7350    0.6305    0.0000 C   0  0  0  0  0  0  0  0  0  0  0  0
   23.2241   -0.0332    0.0000 C   0  0  0  0  0  0  0  0  0  0  0  0
   24.0413    0.0593    0.0000 C   0  0  0  0  0  0  0  0  0  0  0  0
   24.3706    0.8147    0.0000 C   0  0  0  0  0  0  0  0  0  0  0  0
   23.8766    1.4785    0.0000 C   0  0  0  0  0  0  0  0  0  0  0  0
   23.0611    1.3828    0.0000 C   0  0  0  0  0  0  0  0  0  0  0  0
   21.2307    1.6018    0.0000 O   0  0  0  0  0  0  0  0  0  0  0  0
   15.9137   -0.2793    0.0000 C   0  0  0  0  0  0  0  0  0  0  0  0
   23.0104   -1.4905    0.0000 C   0  0  0  0  0  0  0  0  0  0  0  0
   15.0878   -0.2752    0.0000 C   0  0  0  0  0  0  0  0  0  0  0  0
   23.8327   -1.4888    0.0000 C   0  0  0  0  0  0  0  0  0  0  0  0
   14.6713   -0.9882    0.0000 C   0  0  0  0  0  0  0  0  0  0  0  0
   24.2470   -2.2030    0.0000 C   0  0  0  0  0  0  0  0  0  0  0  0
 20 21  2  0  0  0  0
  3  6  1  0  0  0  0
 21 22  1  0  0  0  0
 22 30  2  0  0  0  0
  9 10  2  0  0  0  0
 29 23  2  0  0  0  0
 23 20  1  0  0  0  0
 10  5  1  0  0  0  0
 18 24  2  0  0  0  0
 11 12  1  0  0  0  0
 24 25  1  0  0  0  0
  5  4  1  0  0  0  0
 25 26  2  0  0  0  0
 12 13  2  0  0  0  0
 26 27  1  0  0  0  0
  4  2  1  0  0  0  0
 27 28  2  0  0  0  0
 28 18  1  0  0  0  0
 29 30  1  0  0  0  0
  1  3  1  0  0  0  0
  2  3  2  0  0  0  0
  1 14  1  0  0  0  0
 30 31  1  0  0  0  0
 31 33  1  0  0  0  0
 32 29  1  0  0  0  0
  5  6  2  0  0  0  0
 11 15  1  0  0  0  0
 32 33  2  0  0  0  0
  2 13  1  0  0  0  0
 33 34  1  0  0  0  0
 15 16  1  0  0  0  0
 34 35  2  0  0  0  0
  6  7  1  0  0  0  0
 35 36  1  0  0  0  0
 16 17  1  0  0  0  0
 36 37  2  0  0  0  0
 37 32  1  0  0  0  0
 23 38  1  0  0  0  0
 17 18  1  0  0  0  0
  4 39  1  0  0  0  0
  7  8  2  0  0  0  0
 31 40  1  0  0  0  0
 16 19  1  0  0  0  0
 39 41  1  0  0  0  0
 11  1  2  0  0  0  0
 40 42  1  0  0  0  0
 19 20  1  0  0  0  0
 41 43  2  0  0  0  0
  8  9  1  0  0  0  0
 42 44  2  0  0  0  0
M  END
>  <Mol Weight>
578.7022

>  <Formula>
C38H34N4O2

>  <chembl_id>
CHEMBL1163417

$$$$

  Mrv0541 06201412482D          

 39 43  0  0  0  0            999 V2000
    4.2505   -0.6513    0.0000 S   0  0  0  0  0  0  0  0  0  0  0  0
   -0.0334   -0.6513    0.0000 N   0  0  0  0  0  0  0  0  0  0  0  0
    4.9603    0.5970    0.0000 C   0  0  0  0  0  0  0  0  0  0  0  0
   -0.7849   -0.3048    0.0000 C   0  0  0  0  0  0  0  0  0  0  0  0
    4.2505    0.1754    0.0000 N   0  0  0  0  0  0  0  0  0  0  0  0
   -0.9269   -1.6409    0.0000 N   0  0  0  0  0  0  0  0  0  0  0  0
   -1.3361   -0.8309    0.0000 C   0  0  0  0  0  0  0  0  0  0  0  0
   -0.1211   -1.4655    0.0000 C   0  0  0  0  0  0  0  0  0  0  0  0
    5.0354    1.4237    0.0000 C   0  0  0  0  0  0  0  0  0  0  0  0
    6.2630    0.8851    0.0000 N   0  0  0  0  0  0  0  0  0  0  0  0
    4.2588   -1.4697    0.0000 C   0  0  0  0  0  0  0  0  0  0  0  0
    5.7160    0.2714    0.0000 O   0  0  0  0  0  0  0  0  0  0  0  0
    3.5448   -1.8914    0.0000 C   0  0  0  0  0  0  0  0  0  0  0  0
    2.8309   -1.4781    0.0000 C   0  0  0  0  0  0  0  0  0  0  0  0
    5.8413    1.5991    0.0000 C   0  0  0  0  0  0  0  0  0  0  0  0
    2.1086   -1.8914    0.0000 C   0  0  0  0  0  0  0  0  0  0  0  0
   -0.8601    0.4592    0.0000 C   0  0  0  0  0  0  0  0  0  0  0  0
    0.6806   -0.2380    0.0000 C   0  0  0  0  0  0  0  0  0  0  0  0
    3.5365   -0.2422    0.0000 O   0  0  0  0  0  0  0  0  0  0  0  0
    4.9645   -0.2297    0.0000 O   0  0  0  0  0  0  0  0  0  0  0  0
    2.8309   -0.6430    0.0000 C   0  0  0  0  0  0  0  0  0  0  0  0
    1.3946   -1.4781    0.0000 C   0  0  0  0  0  0  0  0  0  0  0  0
    1.3946   -0.6513    0.0000 C   0  0  0  0  0  0  0  0  0  0  0  0
   -0.2087    0.8476    0.0000 O   0  0  0  0  0  0  0  0  0  0  0  0
    2.1086   -2.7181    0.0000 F   0  0  0  0  0  0  0  0  0  0  0  0
    2.1086   -0.2297    0.0000 C   0  0  0  0  0  0  0  0  0  0  0  0
    4.4133    1.9666    0.0000 C   0  0  0  0  0  0  0  0  0  0  0  0
   -2.0918   -0.7307    0.0000 C   0  0  0  0  0  0  0  0  0  0  0  0
    0.2923   -2.1795    0.0000 C   0  0  0  0  0  0  0  0  0  0  0  0
    3.5448   -2.7181    0.0000 C   0  0  0  0  0  0  0  0  0  0  0  0
    4.9728   -1.8831    0.0000 C   0  0  0  0  0  0  0  0  0  0  0  0
    6.1670    2.3549    0.0000 C   0  0  0  0  0  0  0  0  0  0  0  0
   -1.4989    0.8726    0.0000 C   0  0  0  0  0  0  0  0  0  0  0  0
   -0.1253   -2.8935    0.0000 C   0  0  0  0  0  0  0  0  0  0  0  0
   -2.4884   -0.0794    0.0000 C   0  0  0  0  0  0  0  0  0  0  0  0
    4.2630   -3.1232    0.0000 C   0  0  0  0  0  0  0  0  0  0  0  0
    4.9770   -2.7098    0.0000 C   0  0  0  0  0  0  0  0  0  0  0  0
   -2.2171    0.6346    0.0000 C   0  0  0  0  0  0  0  0  0  0  0  0
    0.2881   -3.6075    0.0000 C   0  0  0  0  0  0  0  0  0  0  0  0
  2 18  1  0  0  0  0
  3  5  1  0  0  0  0
  4  2  1  0  0  0  0
  5  1  1  0  0  0  0
  6  8  2  0  0  0  0
  7  4  2  0  0  0  0
  8  2  1  0  0  0  0
  9  3  2  0  0  0  0
 10 12  1  0  0  0  0
 11  1  1  0  0  0  0
 12  3  1  0  0  0  0
 13 11  1  0  0  0  0
 14 13  1  0  0  0  0
 15  9  1  0  0  0  0
 16 14  2  0  0  0  0
 17  4  1  0  0  0  0
 18 23  1  0  0  0  0
 19  1  2  0  0  0  0
 20  1  2  0  0  0  0
 21 14  1  0  0  0  0
 22 16  1  0  0  0  0
 23 26  1  0  0  0  0
 24 17  2  0  0  0  0
 25 16  1  0  0  0  0
 26 21  2  0  0  0  0
 27  9  1  0  0  0  0
 28  7  1  0  0  0  0
 29  8  1  0  0  0  0
 30 13  2  0  0  0  0
 31 11  2  0  0  0  0
 32 15  1  0  0  0  0
 33 17  1  0  0  0  0
 34 29  1  0  0  0  0
 35 28  1  0  0  0  0
 36 37  2  0  0  0  0
 37 31  1  0  0  0  0
 38 33  1  0  0  0  0
 39 34  1  0  0  0  0
 36 30  1  0  0  0  0
 15 10  2  0  0  0  0
 22 23  2  0  0  0  0
  6  7  1  0  0  0  0
 38 35  1  0  0  0  0
M  END
>  <Mol Weight>
550.644

>  <Formula>
C29H31FN4O4S

>  <chembl_id>
CHEMBL12590

$$$$

  Mrv0541 06201412482D          

 37 40  0  0  0  0            999 V2000
    6.1627   -4.9227    0.0000 N   0  0  0  0  0  0  0  0  0  0  0  0
    4.0250   -6.1670    0.0000 C   0  0  0  0  0  0  0  0  0  0  0  0
    6.8767   -5.3360    0.0000 C   0  0  0  0  0  0  0  0  0  0  0  0
    5.4530   -5.3402    0.0000 C   0  0  0  0  0  0  0  0  0  0  0  0
    3.3110   -4.9269    0.0000 N   0  0  0  0  0  0  0  0  0  0  0  0
    4.0250   -5.3360    0.0000 C   0  0  0  0  0  0  0  0  0  0  0  0
    6.8767   -6.1627    0.0000 C   0  0  0  0  0  0  0  0  0  0  0  0
    5.4530   -6.1627    0.0000 C   0  0  0  0  0  0  0  0  0  0  0  0
    6.1627   -6.5761    0.0000 N   0  0  0  0  0  0  0  0  0  0  0  0
    3.3110   -6.5803    0.0000 C   0  0  0  0  0  0  0  0  0  0  0  0
    4.7390   -4.9269    0.0000 C   0  0  0  0  0  0  0  0  0  0  0  0
    4.7390   -6.5761    0.0000 C   0  0  0  0  0  0  0  0  0  0  0  0
    3.2234   -4.1002    0.0000 C   0  0  0  0  0  0  0  0  0  0  0  0
    2.5553   -5.2609    0.0000 C   0  0  0  0  0  0  0  0  0  0  0  0
    2.2296   -1.7536    0.0000 C   0  0  0  0  0  0  0  0  0  0  0  0
    2.4175   -3.9331    0.0000 C   0  0  0  0  0  0  0  0  0  0  0  0
    6.1627   -4.0960    0.0000 C   0  0  0  0  0  0  0  0  0  0  0  0
    2.0041   -4.6471    0.0000 C   0  0  0  0  0  0  0  0  0  0  0  0
    6.8767   -3.6743    0.0000 C   0  0  0  0  0  0  0  0  0  0  0  0
    2.7098   -1.0814    0.0000 N   0  0  0  0  0  0  0  0  0  0  0  0
    7.5949   -4.9269    0.0000 O   0  0  0  0  0  0  0  0  0  0  0  0
    2.5678   -2.5094    0.0000 N   0  0  0  0  0  0  0  0  0  0  0  0
    7.5949   -6.5803    0.0000 O   0  0  0  0  0  0  0  0  0  0  0  0
    1.4071   -1.6659    0.0000 O   0  0  0  0  0  0  0  0  0  0  0  0
    6.8767   -2.8476    0.0000 O   0  0  0  0  0  0  0  0  0  0  0  0
    2.6555   -6.9561    0.0000 F   0  0  0  0  0  0  0  0  0  0  0  0
    2.5052   -6.2755    0.0000 F   0  0  0  0  0  0  0  0  0  0  0  0
    3.1733   -7.4321    0.0000 F   0  0  0  0  0  0  0  0  0  0  0  0
    2.0710   -3.1733    0.0000 C   0  0  0  0  0  0  0  0  0  0  0  0
    2.2463   -0.4050    0.0000 C   0  0  0  0  0  0  0  0  0  0  0  0
    1.3277    0.9352    0.0000 C   0  0  0  0  0  0  0  0  0  0  0  0
    7.5949   -4.0877    0.0000 O   0  0  0  0  0  0  0  0  0  0  0  0
    0.8560    1.6116    0.0000 Br  0  0  0  0  0  0  0  0  0  0  0  0
    2.6054    0.3257    0.0000 C   0  0  0  0  0  0  0  0  0  0  0  0
    1.4405   -0.4802    0.0000 C   0  0  0  0  0  0  0  0  0  0  0  0
    0.9770    0.1879    0.0000 C   0  0  0  0  0  0  0  0  0  0  0  0
    2.1336    0.9979    0.0000 C   0  0  0  0  0  0  0  0  0  0  0  0
  2  6  1  0  0  0  0
  3  1  1  0  0  0  0
  4  1  1  0  0  0  0
  5  6  1  0  0  0  0
  6 11  2  0  0  0  0
  7  3  1  0  0  0  0
  8  4  2  0  0  0  0
  9  8  1  0  0  0  0
 10  2  1  0  0  0  0
 11  4  1  0  0  0  0
 12  8  1  0  0  0  0
 13  5  1  0  0  0  0
 14  5  1  0  0  0  0
 15 22  1  0  0  0  0
 16 13  2  0  0  0  0
 17  1  1  0  0  0  0
 18 14  2  0  0  0  0
 19 17  1  0  0  0  0
 20 15  1  0  0  0  0
 21  3  2  0  0  0  0
 22 29  1  0  0  0  0
 23  7  2  0  0  0  0
 24 15  2  0  0  0  0
 25 19  2  0  0  0  0
 26 10  1  0  0  0  0
 27 10  1  0  0  0  0
 28 10  1  0  0  0  0
 29 16  1  0  0  0  0
 30 20  1  0  0  0  0
 31 36  1  0  0  0  0
 32 19  1  0  0  0  0
 33 31  1  0  0  0  0
 34 30  2  0  0  0  0
 35 30  1  0  0  0  0
 36 35  2  0  0  0  0
 37 34  1  0  0  0  0
 12  2  2  0  0  0  0
  9  7  1  0  0  0  0
 18 16  1  0  0  0  0
 31 37  2  0  0  0  0
M  END
>  <Mol Weight>
580.311

>  <Formula>
C23H17BrF3N5O5

>  <chembl_id>
CHEMBL12696

$$$$

  Mrv0541 06201412482D          

 43 46  0  0  1  0            999 V2000
    8.1011   -4.2167    0.0000 N   0  0  0  0  0  0  0  0  0  0  0  0
    8.8058   -2.9792    0.0000 C   0  0  0  0  0  0  0  0  0  0  0  0
    8.8058   -3.8042    0.0000 C   0  0  2  0  0  0  0  0  0  0  0  0
    4.5261   -3.7984    0.0000 C   0  0  0  0  0  0  0  0  0  0  0  0
    9.6308   -2.9792    0.0000 N   0  0  0  0  0  0  0  0  0  0  0  0
    7.3792   -3.8042    0.0000 C   0  0  0  0  0  0  0  0  0  0  0  0
    5.2422   -4.2167    0.0000 N   0  0  0  0  0  0  0  0  0  0  0  0
    5.9526   -3.8042    0.0000 C   0  0  2  0  0  0  0  0  0  0  0  0
    6.6687   -4.2167    0.0000 C   0  0  2  0  0  0  0  0  0  0  0  0
    9.5219   -4.2167    0.0000 C   0  0  0  0  0  0  0  0  0  0  0  0
    8.1011   -5.0417    0.0000 C   0  0  0  0  0  0  0  0  0  0  0  0
    8.8000   -2.1542    0.0000 O   0  0  0  0  0  0  0  0  0  0  0  0
    4.5261   -2.9734    0.0000 O   0  0  0  0  0  0  0  0  0  0  0  0
    5.9526   -2.9792    0.0000 C   0  0  0  0  0  0  0  0  0  0  0  0
   10.4558   -2.9792    0.0000 C   0  0  0  0  0  0  0  0  0  0  0  0
    3.8042   -4.1995    0.0000 O   0  0  0  0  0  0  0  0  0  0  0  0
   13.0855   -6.2792    0.0000 N   0  0  0  0  0  0  0  0  0  0  0  0
    8.8058   -5.4542    0.0000 C   0  0  0  0  0  0  0  0  0  0  0  0
    9.5219   -5.0417    0.0000 C   0  0  1  0  0  0  0  0  0  0  0  0
   10.2323   -5.4542    0.0000 O   0  0  0  0  0  0  0  0  0  0  0  0
    6.6573   -5.0417    0.0000 O   0  0  0  0  0  0  0  0  0  0  0  0
    3.0995   -3.7984    0.0000 C   0  0  0  0  0  0  0  0  0  0  0  0
    6.6745   -2.5667    0.0000 C   0  0  0  0  0  0  0  0  0  0  0  0
   10.9542   -5.0417    0.0000 C   0  0  0  0  0  0  0  0  0  0  0  0
    2.3891   -4.2167    0.0000 C   0  0  0  0  0  0  0  0  0  0  0  0
   11.6589   -5.4542    0.0000 C   0  0  0  0  0  0  0  0  0  0  0  0
   13.0855   -5.4542    0.0000 C   0  0  0  0  0  0  0  0  0  0  0  0
   12.3750   -6.6917    0.0000 C   0  0  0  0  0  0  0  0  0  0  0  0
   10.4500   -3.8042    0.0000 C   0  0  0  0  0  0  0  0  0  0  0  0
   11.2808   -2.9792    0.0000 C   0  0  0  0  0  0  0  0  0  0  0  0
   10.4500   -2.1542    0.0000 C   0  0  0  0  0  0  0  0  0  0  0  0
   11.6589   -6.2792    0.0000 C   0  0  0  0  0  0  0  0  0  0  0  0
   12.3750   -5.0417    0.0000 C   0  0  0  0  0  0  0  0  0  0  0  0
    6.6745   -1.7531    0.0000 C   0  0  0  0  0  0  0  0  0  0  0  0
    7.3906   -2.9906    0.0000 C   0  0  0  0  0  0  0  0  0  0  0  0
    2.3948   -5.0417    0.0000 C   0  0  0  0  0  0  0  0  0  0  0  0
    1.6730   -3.8042    0.0000 C   0  0  0  0  0  0  0  0  0  0  0  0
    1.6730   -5.4542    0.0000 C   0  0  0  0  0  0  0  0  0  0  0  0
    0.9683   -4.2167    0.0000 C   0  0  0  0  0  0  0  0  0  0  0  0
    8.1011   -2.5839    0.0000 C   0  0  0  0  0  0  0  0  0  0  0  0
    7.3906   -1.3406    0.0000 C   0  0  0  0  0  0  0  0  0  0  0  0
    8.1011   -1.7531    0.0000 C   0  0  0  0  0  0  0  0  0  0  0  0
    0.9683   -5.0417    0.0000 C   0  0  0  0  0  0  0  0  0  0  0  0
  3  2  1  6  0  0  0
  3  1  1  0  0  0  0
  4  7  1  0  0  0  0
  5  2  1  0  0  0  0
  6  1  1  0  0  0  0
  7  8  1  0  0  0  0
  8  9  1  0  0  0  0
  9  6  1  0  0  0  0
 10  3  1  0  0  0  0
 11  1  1  0  0  0  0
 12  2  2  0  0  0  0
 13  4  2  0  0  0  0
  8 14  1  1  0  0  0
 15  5  1  0  0  0  0
 16  4  1  0  0  0  0
 17 27  1  0  0  0  0
 18 11  1  0  0  0  0
 19 18  1  0  0  0  0
 19 20  1  6  0  0  0
  9 21  1  1  0  0  0
 22 16  1  0  0  0  0
 23 14  1  0  0  0  0
 24 20  1  0  0  0  0
 25 22  1  0  0  0  0
 26 24  1  0  0  0  0
 27 33  2  0  0  0  0
 28 32  1  0  0  0  0
 29 15  1  0  0  0  0
 30 15  1  0  0  0  0
 31 15  1  0  0  0  0
 32 26  2  0  0  0  0
 33 26  1  0  0  0  0
 34 23  1  0  0  0  0
 35 23  2  0  0  0  0
 36 25  1  0  0  0  0
 37 25  2  0  0  0  0
 38 36  2  0  0  0  0
 39 37  1  0  0  0  0
 40 35  1  0  0  0  0
 41 34  2  0  0  0  0
 42 40  2  0  0  0  0
 43 39  2  0  0  0  0
 19 10  1  0  0  0  0
 28 17  2  0  0  0  0
 41 42  1  0  0  0  0
 38 43  1  0  0  0  0
M  END
>  <Mol Weight>
588.737

>  <Formula>
C34H44N4O5

>  <chembl_id>
CHEMBL12413

$$$$

  Mrv0541 06201412482D          

 40 40  0  0  1  0            999 V2000
   10.7626  -12.5931    0.0000 N   0  0  0  0  0  0  0  0  0  0  0  0
   10.3882  -13.3212    0.0000 C   0  0  0  0  0  0  0  0  0  0  0  0
   12.8469  -13.1839    0.0000 N   0  3  0  0  0  0  0  0  0  0  0  0
   11.5864  -12.5474    0.0000 C   0  0  0  0  0  0  0  0  0  0  0  0
   10.3133  -11.8984    0.0000 C   0  0  0  0  0  0  0  0  0  0  0  0
   12.0357  -13.2338    0.0000 C   0  0  0  0  0  0  0  0  0  0  0  0
    7.7548  -13.5958    0.0000 S   0  0  0  0  0  0  0  0  0  0  0  0
    9.5645  -13.3711    0.0000 O   0  0  0  0  0  0  0  0  0  0  0  0
   10.8375  -14.0159    0.0000 O   0  0  0  0  0  0  0  0  0  0  0  0
    8.3663  -14.1574    0.0000 C   0  0  2  0  0  0  0  0  0  0  0  0
    7.2056  -14.2156    0.0000 C   0  0  2  0  0  0  0  0  0  0  0  0
   10.6753  -11.1620    0.0000 O   0  0  0  0  0  0  0  0  0  0  0  0
    7.8296  -14.7690    0.0000 C   0  0  0  0  0  0  0  0  0  0  0  0
   14.5693  -13.8454    0.0000 Cl  0  5  0  0  0  0  0  0  0  0  0  0
    9.1900  -14.1075    0.0000 C   0  0  0  0  0  0  0  0  0  0  0  0
   13.2213  -12.4475    0.0000 C   0  0  0  0  0  0  0  0  0  0  0  0
   13.2962  -13.8786    0.0000 C   0  0  0  0  0  0  0  0  0  0  0  0
    9.4896  -11.9483    0.0000 C   0  0  0  0  0  0  0  0  0  0  0  0
    6.0199  -14.9936    0.0000 O   0  0  0  0  0  0  0  0  0  0  0  0
   11.6612  -13.9702    0.0000 C   0  0  0  0  0  0  0  0  0  0  0  0
    6.3819  -14.2572    0.0000 C   0  0  0  0  0  0  0  0  0  0  0  0
    5.1962  -15.0393    0.0000 C   0  0  0  0  0  0  0  0  0  0  0  0
   14.0451  -12.4059    0.0000 C   0  0  0  0  0  0  0  0  0  0  0  0
   12.9218  -14.6150    0.0000 C   0  0  0  0  0  0  0  0  0  0  0  0
    4.8218  -15.7757    0.0000 C   0  0  0  0  0  0  0  0  0  0  0  0
   -3.1659  -20.5101    0.0000 C   0  0  0  0  0  0  0  0  0  0  0  0
   -2.3422  -20.4685    0.0000 C   0  0  0  0  0  0  0  0  0  0  0  0
    0.0416  -18.9001    0.0000 C   0  0  0  0  0  0  0  0  0  0  0  0
   -0.7696  -18.9500    0.0000 C   0  0  0  0  0  0  0  0  0  0  0  0
   -1.1440  -19.6864    0.0000 C   0  0  0  0  0  0  0  0  0  0  0  0
   -1.9678  -19.7321    0.0000 C   0  0  0  0  0  0  0  0  0  0  0  0
    3.9980  -15.8173    0.0000 C   0  0  0  0  0  0  0  0  0  0  0  0
    3.6236  -16.5537    0.0000 C   0  0  0  0  0  0  0  0  0  0  0  0
    2.7999  -16.6036    0.0000 C   0  0  0  0  0  0  0  0  0  0  0  0
    2.4379  -17.3400    0.0000 C   0  0  0  0  0  0  0  0  0  0  0  0
    1.6142  -17.3857    0.0000 C   0  0  0  0  0  0  0  0  0  0  0  0
    1.2398  -18.1221    0.0000 C   0  0  0  0  0  0  0  0  0  0  0  0
    0.4161  -18.1637    0.0000 C   0  0  0  0  0  0  0  0  0  0  0  0
   12.0981  -14.6566    0.0000 C   0  0  0  0  0  0  0  0  0  0  0  0
   -3.5279  -21.2465    0.0000 C   0  0  0  0  0  0  0  0  0  0  0  0
  2  1  1  0  0  0  0
  3  6  2  0  0  0  0
  4  1  1  0  0  0  0
  5  1  1  0  0  0  0
  6  4  1  0  0  0  0
  7 10  1  0  0  0  0
  8  2  1  0  0  0  0
  9  2  2  0  0  0  0
 10 15  1  1  0  0  0
 11 13  1  0  0  0  0
 12  5  2  0  0  0  0
 13 10  1  0  0  0  0
 15  8  1  0  0  0  0
 16  3  1  0  0  0  0
 17  3  1  0  0  0  0
 18  5  1  0  0  0  0
 19 21  1  0  0  0  0
 20  6  1  0  0  0  0
 11 21  1  6  0  0  0
 22 19  1  0  0  0  0
 23 16  1  0  0  0  0
 24 39  1  0  0  0  0
 25 22  1  0  0  0  0
 26 27  1  0  0  0  0
 27 31  1  0  0  0  0
 28 38  1  0  0  0  0
 29 28  1  0  0  0  0
 30 29  1  0  0  0  0
 31 30  1  0  0  0  0
 32 25  1  0  0  0  0
 33 32  1  0  0  0  0
 34 33  1  0  0  0  0
 35 34  1  0  0  0  0
 36 35  1  0  0  0  0
 37 36  1  0  0  0  0
 38 37  1  0  0  0  0
 39 20  2  0  0  0  0
 40 26  1  0  0  0  0
 17 24  2  0  0  0  0
 11  7  1  0  0  0  0
M  CHG  2   3   1  14  -1
M  END
>  <Mol Weight>
599.308

>  <Formula>
C32H55ClN2O4S

>  <chembl_id>
CHEMBL12499

$$$$

  Mrv0541 06201412482D          

 38 41  0  0  1  0            999 V2000
    7.1214   -4.3714    0.0000 S   0  0  0  0  0  0  0  0  0  0  0  0
    8.3589   -5.0875    0.0000 C   0  0  2  0  0  0  0  0  0  0  0  0
    7.9464   -4.3714    0.0000 N   0  0  0  0  0  0  0  0  0  0  0  0
    9.1839   -5.0875    0.0000 C   0  0  0  0  0  0  0  0  0  0  0  0
    7.1214   -3.5464    0.0000 C   0  0  0  0  0  0  0  0  0  0  0  0
    7.9406   -5.6948    0.0000 C   0  0  0  0  0  0  0  0  0  0  0  0
    9.5964   -5.7980    0.0000 N   0  0  0  0  0  0  0  0  0  0  0  0
    8.2672   -6.4625    0.0000 N   0  0  0  0  0  0  0  0  0  0  0  0
    6.4167   -3.1339    0.0000 C   0  0  0  0  0  0  0  0  0  0  0  0
    5.6948   -3.5406    0.0000 N   0  0  0  0  0  0  0  0  0  0  0  0
    6.2964   -4.3656    0.0000 O   0  0  0  0  0  0  0  0  0  0  0  0
    6.6687   -5.0761    0.0000 O   0  0  0  0  0  0  0  0  0  0  0  0
    6.9266   -6.5828    0.0000 S   0  0  0  0  0  0  0  0  0  0  0  0
    7.6370   -7.0011    0.0000 C   0  0  0  0  0  0  0  0  0  0  0  0
    7.1042   -5.7636    0.0000 C   0  0  0  0  0  0  0  0  0  0  0  0
    9.5964   -4.3714    0.0000 O   0  0  0  0  0  0  0  0  0  0  0  0
   10.4214   -5.7980    0.0000 C   0  0  0  0  0  0  0  0  0  0  0  0
    9.1839   -6.5141    0.0000 C   0  0  0  0  0  0  0  0  0  0  0  0
    7.8433   -2.3089    0.0000 N   0  0  0  0  0  0  0  0  0  0  0  0
    4.9844   -3.1281    0.0000 C   0  0  1  0  0  0  0  0  0  0  0  0
    7.8433   -3.1339    0.0000 C   0  0  0  0  0  0  0  0  0  0  0  0
    6.4167   -2.3089    0.0000 C   0  0  0  0  0  0  0  0  0  0  0  0
    4.2683   -3.5464    0.0000 C   0  0  0  0  0  0  0  0  0  0  0  0
    9.5964   -7.2245    0.0000 C   0  0  0  0  0  0  0  0  0  0  0  0
   10.8339   -6.5198    0.0000 C   0  0  0  0  0  0  0  0  0  0  0  0
    3.5464   -3.1339    0.0000 C   0  0  0  0  0  0  0  0  0  0  0  0
   10.8281   -9.3730    0.0000 F   0  0  0  0  0  0  0  0  0  0  0  0
   10.4214   -7.2245    0.0000 C   0  0  0  0  0  0  0  0  0  0  0  0
    7.1214   -1.8964    0.0000 C   0  0  0  0  0  0  0  0  0  0  0  0
    5.7062   -1.7245    0.0000 O   0  0  0  0  0  0  0  0  0  0  0  0
    4.9844   -2.3031    0.0000 C   0  0  0  0  0  0  0  0  0  0  0  0
   10.4156   -8.6511    0.0000 C   0  0  0  0  0  0  0  0  0  0  0  0
   10.8281   -7.9464    0.0000 C   0  0  0  0  0  0  0  0  0  0  0  0
    2.8359   -3.5464    0.0000 C   0  0  0  0  0  0  0  0  0  0  0  0
    3.5464   -2.3031    0.0000 C   0  0  0  0  0  0  0  0  0  0  0  0
    2.1198   -3.1339    0.0000 C   0  0  0  0  0  0  0  0  0  0  0  0
    2.8359   -1.8906    0.0000 C   0  0  0  0  0  0  0  0  0  0  0  0
    2.1198   -2.3031    0.0000 C   0  0  0  0  0  0  0  0  0  0  0  0
  2  3  1  0  0  0  0
  3  1  1  0  0  0  0
  4  2  1  0  0  0  0
  5  1  1  0  0  0  0
  2  6  1  6  0  0  0
  7  4  1  0  0  0  0
  8  6  1  0  0  0  0
  9  5  2  0  0  0  0
 10  9  1  0  0  0  0
 11  1  2  0  0  0  0
 12  1  2  0  0  0  0
 13 15  1  0  0  0  0
 14  8  2  0  0  0  0
 15  6  2  0  0  0  0
 16  4  2  0  0  0  0
 17  7  1  0  0  0  0
 18  7  1  0  0  0  0
 19 21  2  0  0  0  0
 20 10  1  0  0  0  0
 21  5  1  0  0  0  0
 22  9  1  0  0  0  0
 23 20  1  0  0  0  0
 24 18  1  0  0  0  0
 25 17  1  0  0  0  0
 26 23  1  0  0  0  0
 27 32  1  0  0  0  0
 28 24  1  0  0  0  0
 29 19  1  0  0  0  0
 30 31  1  0  0  0  0
 20 31  1  1  0  0  0
 32 33  1  0  0  0  0
 33 28  1  0  0  0  0
 34 26  2  0  0  0  0
 35 26  1  0  0  0  0
 36 34  1  0  0  0  0
 37 35  2  0  0  0  0
 38 37  1  0  0  0  0
 22 29  2  0  0  0  0
 14 13  1  0  0  0  0
 28 25  1  0  0  0  0
 36 38  2  0  0  0  0
M  END
>  <Mol Weight>
561.692

>  <Formula>
C26H32FN5O4S2

>  <chembl_id>
CHEMBL12425

$$$$

  Mrv0541 06201412482D          

 41 44  0  0  1  0            999 V2000
    0.9625   -0.8823    0.0000 S   0  0  0  0  0  0  0  0  0  0  0  0
    1.2776   -2.4120    0.0000 C   0  0  2  0  0  0  0  0  0  0  0  0
    0.9625   -1.6156    0.0000 N   0  0  0  0  0  0  0  0  0  0  0  0
    2.1026   -2.4120    0.0000 C   0  0  0  0  0  0  0  0  0  0  0  0
    0.9683   -0.0573    0.0000 C   0  0  0  0  0  0  0  0  0  0  0  0
    2.5151   -3.1167    0.0000 N   0  0  0  0  0  0  0  0  0  0  0  0
    0.6933   -2.9906    0.0000 C   0  0  0  0  0  0  0  0  0  0  0  0
    0.2578    0.3609    0.0000 C   0  0  0  0  0  0  0  0  0  0  0  0
   -0.4583   -0.0402    0.0000 N   0  0  0  0  0  0  0  0  0  0  0  0
    1.8906   -0.8422    0.0000 O   0  0  0  0  0  0  0  0  0  0  0  0
    0.1375   -0.8766    0.0000 O   0  0  0  0  0  0  0  0  0  0  0  0
    0.8938   -3.7812    0.0000 C   0  0  0  0  0  0  0  0  0  0  0  0
    0.3094   -4.3542    0.0000 C   0  0  0  0  0  0  0  0  0  0  0  0
    2.5151   -1.7016    0.0000 O   0  0  0  0  0  0  0  0  0  0  0  0
   -0.4927   -4.1308    0.0000 C   0  0  0  0  0  0  0  0  0  0  0  0
    2.1026   -3.8386    0.0000 C   0  0  0  0  0  0  0  0  0  0  0  0
    3.3401   -3.1167    0.0000 C   0  0  0  0  0  0  0  0  0  0  0  0
   -0.1031   -2.7558    0.0000 C   0  0  0  0  0  0  0  0  0  0  0  0
    1.6901    1.1802    0.0000 N   0  0  0  0  0  0  0  0  0  0  0  0
   -0.6989   -3.3344    0.0000 C   0  0  0  0  0  0  0  0  0  0  0  0
   -1.1802    0.3723    0.0000 C   0  0  1  0  0  0  0  0  0  0  0  0
    1.6844    0.3552    0.0000 C   0  0  0  0  0  0  0  0  0  0  0  0
    0.2578    1.1802    0.0000 C   0  0  0  0  0  0  0  0  0  0  0  0
    0.3495   -5.1792    0.0000 N   0  0  0  0  0  0  0  0  0  0  0  0
   -1.8848   -0.0402    0.0000 C   0  0  0  0  0  0  0  0  0  0  0  0
    3.7526   -3.8386    0.0000 C   0  0  0  0  0  0  0  0  0  0  0  0
    2.5151   -4.5433    0.0000 C   0  0  0  0  0  0  0  0  0  0  0  0
   -0.9453   -4.8297    0.0000 O   0  0  0  0  0  0  0  0  0  0  0  0
   -2.6067    0.3609    0.0000 C   0  0  0  0  0  0  0  0  0  0  0  0
    3.7469   -6.6917    0.0000 F   0  0  0  0  0  0  0  0  0  0  0  0
    3.3401   -4.5547    0.0000 C   0  0  0  0  0  0  0  0  0  0  0  0
    0.9683    1.5927    0.0000 C   0  0  0  0  0  0  0  0  0  0  0  0
   -0.4583    1.7703    0.0000 O   0  0  0  0  0  0  0  0  0  0  0  0
   -1.1802    1.1973    0.0000 C   0  0  0  0  0  0  0  0  0  0  0  0
    3.3344   -5.9812    0.0000 C   0  0  0  0  0  0  0  0  0  0  0  0
    3.7469   -5.2651    0.0000 C   0  0  0  0  0  0  0  0  0  0  0  0
   -3.3286   -0.0402    0.0000 C   0  0  0  0  0  0  0  0  0  0  0  0
   -2.6067    1.1973    0.0000 C   0  0  0  0  0  0  0  0  0  0  0  0
   -4.0333    0.3609    0.0000 C   0  0  0  0  0  0  0  0  0  0  0  0
   -3.3286    1.6098    0.0000 C   0  0  0  0  0  0  0  0  0  0  0  0
   -4.0333    1.1859    0.0000 C   0  0  0  0  0  0  0  0  0  0  0  0
  2  3  1  0  0  0  0
  3  1  1  0  0  0  0
  4  2  1  0  0  0  0
  5  1  1  0  0  0  0
  6  4  1  0  0  0  0
  2  7  1  6  0  0  0
  8  5  2  0  0  0  0
  9  8  1  0  0  0  0
 10  1  2  0  0  0  0
 11  1  2  0  0  0  0
 12  7  1  0  0  0  0
 13 12  2  0  0  0  0
 14  4  2  0  0  0  0
 15 20  2  0  0  0  0
 16  6  1  0  0  0  0
 17  6  1  0  0  0  0
 18  7  2  0  0  0  0
 19 22  2  0  0  0  0
 20 18  1  0  0  0  0
 21  9  1  0  0  0  0
 22  5  1  0  0  0  0
 23  8  1  0  0  0  0
 24 13  1  0  0  0  0
 25 21  1  0  0  0  0
 26 17  1  0  0  0  0
 27 16  1  0  0  0  0
 28 15  1  0  0  0  0
 29 25  1  0  0  0  0
 30 35  1  0  0  0  0
 31 26  1  0  0  0  0
 32 19  1  0  0  0  0
 33 34  1  0  0  0  0
 21 34  1  1  0  0  0
 35 36  1  0  0  0  0
 36 31  1  0  0  0  0
 37 29  2  0  0  0  0
 38 29  1  0  0  0  0
 39 37  1  0  0  0  0
 40 38  2  0  0  0  0
 41 40  1  0  0  0  0
 23 32  2  0  0  0  0
 15 13  1  0  0  0  0
 31 27  1  0  0  0  0
 41 39  2  0  0  0  0
M  END
>  <Mol Weight>
585.69

>  <Formula>
C29H36FN5O5S

>  <chembl_id>
CHEMBL12725

$$$$

  Mrv0541 06201412482D          

 44 48  0  0  0  0            999 V2000
    1.7684    0.0209    0.0000 C   0  0  0  0  0  0  0  0  0  0  0  0
    4.3813   -2.0736    0.0000 C   0  0  0  0  0  0  0  0  0  0  0  0
    1.7224   -3.1229    0.0000 C   0  0  0  0  0  0  0  0  0  0  0  0
    4.1430   -0.7651    0.0000 C   0  0  0  0  0  0  0  0  0  0  0  0
    3.1898    0.1714    0.0000 C   0  0  0  0  0  0  0  0  0  0  0  0
    0.7693   -2.1865    0.0000 C   0  0  0  0  0  0  0  0  0  0  0  0
    3.4030   -2.9850    0.0000 C   0  0  0  0  0  0  0  0  0  0  0  0
    0.7023   -0.7567    0.0000 C   0  0  0  0  0  0  0  0  0  0  0  0
    3.5619   -2.1739    0.0000 N   0  0  0  0  0  0  0  0  0  0  0  0
    1.5176   -0.7567    0.0000 N   0  0  0  0  0  0  0  0  0  0  0  0
    1.5845   -2.3119    0.0000 N   0  0  0  0  0  0  0  0  0  0  0  0
    3.3278   -0.6438    0.0000 N   0  0  0  0  0  0  0  0  0  0  0  0
    0.9908   -3.5034    0.0000 C   0  0  0  0  0  0  0  0  0  0  0  0
    4.1305   -3.3780    0.0000 C   0  0  0  0  0  0  0  0  0  0  0  0
    1.1162    0.5017    0.0000 C   0  0  0  0  0  0  0  0  0  0  0  0
    4.5067   -0.0293    0.0000 C   0  0  0  0  0  0  0  0  0  0  0  0
    2.4373    0.5100    0.0000 C   0  0  0  0  0  0  0  0  0  0  0  0
    4.7408   -1.3462    0.0000 C   0  0  0  0  0  0  0  0  0  0  0  0
    2.7007   -3.4156    0.0000 C   0  0  0  0  0  0  0  0  0  0  0  0
    0.3178   -1.4925    0.0000 C   0  0  0  0  0  0  0  0  0  0  0  0
    4.7325   -2.8136    0.0000 C   0  0  0  0  0  0  0  0  0  0  0  0
    0.4013   -2.9265    0.0000 C   0  0  0  0  0  0  0  0  0  0  0  0
    3.9256    0.5518    0.0000 C   0  0  0  0  0  0  0  0  0  0  0  0
    0.4432    0.0209    0.0000 C   0  0  0  0  0  0  0  0  0  0  0  0
    0.8696   -4.3186    0.0000 C   0  0  0  0  0  0  0  0  0  0  0  0
    4.2308   -4.2015    0.0000 C   0  0  0  0  0  0  0  0  0  0  0  0
    1.1204    1.3252    0.0000 C   0  0  0  0  0  0  0  0  0  0  0  0
    5.3219    0.1087    0.0000 C   0  0  0  0  0  0  0  0  0  0  0  0
    5.0920   -5.3470    0.0000 C   0  0  0  0  0  0  0  0  0  0  0  0
    1.4047   -5.6438    0.0000 C   0  0  0  0  0  0  0  0  0  0  0  0
    4.4315   -5.8362    0.0000 O   0  0  0  0  0  0  0  0  0  0  0  0
    0.6438   -5.9490    0.0000 O   0  0  0  0  0  0  0  0  0  0  0  0
    4.9916   -4.5193    0.0000 C   0  0  0  0  0  0  0  0  0  0  0  0
    1.5218   -4.8286    0.0000 C   0  0  0  0  0  0  0  0  0  0  0  0
    0.4181    1.7516    0.0000 C   0  0  0  0  0  0  0  0  0  0  0  0
    5.6229    0.8737    0.0000 C   0  0  0  0  0  0  0  0  0  0  0  0
    5.5477   -2.9724    0.0000 C   0  0  0  0  0  0  0  0  0  0  0  0
   -0.4139   -3.0602    0.0000 C   0  0  0  0  0  0  0  0  0  0  0  0
    4.0427    1.3671    0.0000 C   0  0  0  0  0  0  0  0  0  0  0  0
   -0.3470    0.2717    0.0000 C   0  0  0  0  0  0  0  0  0  0  0  0
    5.8487   -5.6731    0.0000 O   0  0  0  0  0  0  0  0  0  0  0  0
    2.0485   -6.1580    0.0000 O   0  0  0  0  0  0  0  0  0  0  0  0
    5.9490   -6.4883    0.0000 C   0  0  0  0  0  0  0  0  0  0  0  0
    1.9357   -6.9733    0.0000 C   0  0  0  0  0  0  0  0  0  0  0  0
  2 18  2  0  0  0  0
  3 11  1  0  0  0  0
  4 12  1  0  0  0  0
  5 17  1  0  0  0  0
  6 20  1  0  0  0  0
  7  9  2  0  0  0  0
  8 10  1  0  0  0  0
  9  2  1  0  0  0  0
 10  1  1  0  0  0  0
 11  6  2  0  0  0  0
 12  5  1  0  0  0  0
 13 22  2  0  0  0  0
 14 21  2  0  0  0  0
 15  1  1  0  0  0  0
 16 23  1  0  0  0  0
 17  1  2  0  0  0  0
 18  4  1  0  0  0  0
 19  3  2  0  0  0  0
 20  8  2  0  0  0  0
 21  2  1  0  0  0  0
 22  6  1  0  0  0  0
 23  5  2  0  0  0  0
 24 15  2  0  0  0  0
 25 13  1  0  0  0  0
 26 14  1  0  0  0  0
 27 15  1  0  0  0  0
 28 16  1  0  0  0  0
 29 33  1  0  0  0  0
 30 34  1  0  0  0  0
 31 29  2  0  0  0  0
 32 30  2  0  0  0  0
 33 26  1  0  0  0  0
 34 25  1  0  0  0  0
 35 27  2  0  0  0  0
 36 28  2  0  0  0  0
 37 21  1  0  0  0  0
 38 22  1  0  0  0  0
 39 23  1  0  0  0  0
 40 24  1  0  0  0  0
 41 29  1  0  0  0  0
 42 30  1  0  0  0  0
 43 41  1  0  0  0  0
 44 42  1  0  0  0  0
  8 24  1  0  0  0  0
 16  4  2  0  0  0  0
  3 13  1  0  0  0  0
  7 19  1  0  0  0  0
 14  7  1  0  0  0  0
M  END
>  <Mol Weight>
590.7113

>  <Formula>
C36H38N4O4

>  <chembl_id>
CHEMBL12467

$$$$

  Mrv0541 06201412482D          

 40 43  0  0  1  0            999 V2000
    0.7734   -0.5328    0.0000 S   0  0  0  0  0  0  0  0  0  0  0  0
    0.7620   -1.2605    0.0000 N   0  0  0  0  0  0  0  0  0  0  0  0
    1.0828   -2.0625    0.0000 C   0  0  2  0  0  0  0  0  0  0  0  0
    1.9078   -2.0625    0.0000 C   0  0  0  0  0  0  0  0  0  0  0  0
    0.7734    0.2922    0.0000 C   0  0  0  0  0  0  0  0  0  0  0  0
    2.3203   -2.7730    0.0000 N   0  0  0  0  0  0  0  0  0  0  0  0
    0.0573    0.7161    0.0000 C   0  0  0  0  0  0  0  0  0  0  0  0
   -0.6531    0.3036    0.0000 N   0  0  0  0  0  0  0  0  0  0  0  0
   -0.0516   -0.5214    0.0000 O   0  0  0  0  0  0  0  0  0  0  0  0
    1.6902   -0.4870    0.0000 O   0  0  0  0  0  0  0  0  0  0  0  0
    0.4984   -2.6355    0.0000 C   0  0  0  0  0  0  0  0  0  0  0  0
    2.3203   -1.3464    0.0000 O   0  0  0  0  0  0  0  0  0  0  0  0
    3.1511   -2.7730    0.0000 C   0  0  0  0  0  0  0  0  0  0  0  0
    1.9078   -3.4891    0.0000 C   0  0  0  0  0  0  0  0  0  0  0  0
    1.4953    1.5297    0.0000 N   0  0  0  0  0  0  0  0  0  0  0  0
   -0.3036   -2.4120    0.0000 C   0  0  0  0  0  0  0  0  0  0  0  0
    0.6933   -3.4261    0.0000 C   0  0  0  0  0  0  0  0  0  0  0  0
   -1.3692    0.7161    0.0000 C   0  0  1  0  0  0  0  0  0  0  0  0
    1.4839    0.7047    0.0000 C   0  0  0  0  0  0  0  0  0  0  0  0
    0.0573    1.5297    0.0000 C   0  0  0  0  0  0  0  0  0  0  0  0
   -0.6875   -3.7870    0.0000 C   0  0  0  0  0  0  0  0  0  0  0  0
   -2.0797    0.3036    0.0000 C   0  0  0  0  0  0  0  0  0  0  0  0
   -1.2719   -4.3656    0.0000 N   0  0  0  0  0  0  0  0  0  0  0  0
   -0.8880   -2.9792    0.0000 C   0  0  0  0  0  0  0  0  0  0  0  0
    0.1089   -4.0105    0.0000 C   0  0  0  0  0  0  0  0  0  0  0  0
    3.5578   -3.4948    0.0000 C   0  0  0  0  0  0  0  0  0  0  0  0
    2.3203   -4.1995    0.0000 C   0  0  0  0  0  0  0  0  0  0  0  0
   -2.8016    0.7161    0.0000 C   0  0  0  0  0  0  0  0  0  0  0  0
    3.5464   -6.3480    0.0000 F   0  0  0  0  0  0  0  0  0  0  0  0
    3.1453   -4.1995    0.0000 C   0  0  0  0  0  0  0  0  0  0  0  0
    0.7734    1.9422    0.0000 C   0  0  0  0  0  0  0  0  0  0  0  0
   -0.6474    2.1255    0.0000 O   0  0  0  0  0  0  0  0  0  0  0  0
   -1.3692    1.5411    0.0000 C   0  0  0  0  0  0  0  0  0  0  0  0
    3.1339   -5.6261    0.0000 C   0  0  0  0  0  0  0  0  0  0  0  0
    3.5464   -4.9214    0.0000 C   0  0  0  0  0  0  0  0  0  0  0  0
   -2.8016    1.5411    0.0000 C   0  0  0  0  0  0  0  0  0  0  0  0
   -3.5177    0.3036    0.0000 C   0  0  0  0  0  0  0  0  0  0  0  0
   -3.5177    1.9536    0.0000 C   0  0  0  0  0  0  0  0  0  0  0  0
   -4.2281    0.7161    0.0000 C   0  0  0  0  0  0  0  0  0  0  0  0
   -4.2281    1.5411    0.0000 C   0  0  0  0  0  0  0  0  0  0  0  0
  2  1  1  0  0  0  0
  3  2  1  0  0  0  0
  4  3  1  0  0  0  0
  5  1  1  0  0  0  0
  6  4  1  0  0  0  0
  7  5  2  0  0  0  0
  8  7  1  0  0  0  0
  9  1  2  0  0  0  0
 10  1  2  0  0  0  0
  3 11  1  6  0  0  0
 12  4  2  0  0  0  0
 13  6  1  0  0  0  0
 14  6  1  0  0  0  0
 15 19  2  0  0  0  0
 16 11  2  0  0  0  0
 17 11  1  0  0  0  0
 18  8  1  0  0  0  0
 19  5  1  0  0  0  0
 20  7  1  0  0  0  0
 21 25  1  0  0  0  0
 22 18  1  0  0  0  0
 23 21  1  0  0  0  0
 24 16  1  0  0  0  0
 25 17  2  0  0  0  0
 26 13  1  0  0  0  0
 27 14  1  0  0  0  0
 28 22  1  0  0  0  0
 29 34  1  0  0  0  0
 30 27  1  0  0  0  0
 31 15  1  0  0  0  0
 32 33  1  0  0  0  0
 18 33  1  1  0  0  0
 34 35  1  0  0  0  0
 35 30  1  0  0  0  0
 36 28  1  0  0  0  0
 37 28  2  0  0  0  0
 38 36  2  0  0  0  0
 39 37  1  0  0  0  0
 40 39  2  0  0  0  0
 20 31  2  0  0  0  0
 21 24  2  0  0  0  0
 30 26  1  0  0  0  0
 40 38  1  0  0  0  0
M  END
>  <Mol Weight>
569.691

>  <Formula>
C29H36FN5O4S

>  <chembl_id>
CHEMBL12506

$$$$

  Mrv0541 06201412482D          

 44 47  0  0  1  0            999 V2000
    3.2886   -2.3433    0.0000 N   0  0  0  0  0  0  0  0  0  0  0  0
    3.9933   -1.1058    0.0000 C   0  0  0  0  0  0  0  0  0  0  0  0
    3.9933   -1.9308    0.0000 C   0  0  2  0  0  0  0  0  0  0  0  0
    4.8183   -1.1058    0.0000 N   0  0  0  0  0  0  0  0  0  0  0  0
    2.5667   -1.9308    0.0000 C   0  0  0  0  0  0  0  0  0  0  0  0
    1.1401   -1.9308    0.0000 C   0  0  2  0  0  0  0  0  0  0  0  0
    0.4355   -2.3433    0.0000 N   0  0  0  0  0  0  0  0  0  0  0  0
    1.8620   -2.3433    0.0000 C   0  0  2  0  0  0  0  0  0  0  0  0
   -0.2864   -1.9308    0.0000 C   0  0  0  0  0  0  0  0  0  0  0  0
    4.7151   -2.3433    0.0000 C   0  0  0  0  0  0  0  0  0  0  0  0
    3.2886   -3.1683    0.0000 C   0  0  0  0  0  0  0  0  0  0  0  0
    3.9933   -0.2808    0.0000 O   0  0  0  0  0  0  0  0  0  0  0  0
   -1.7130   -1.9308    0.0000 O   0  0  0  0  0  0  0  0  0  0  0  0
    1.1401   -1.1058    0.0000 C   0  0  0  0  0  0  0  0  0  0  0  0
    5.6433   -1.1058    0.0000 C   0  0  0  0  0  0  0  0  0  0  0  0
   -2.4177   -2.3433    0.0000 C   0  0  0  0  0  0  0  0  0  0  0  0
    8.2730   -4.4058    0.0000 N   0  0  0  0  0  0  0  0  0  0  0  0
   -0.2864   -1.1058    0.0000 O   0  0  0  0  0  0  0  0  0  0  0  0
    3.9933   -3.5808    0.0000 C   0  0  0  0  0  0  0  0  0  0  0  0
   -2.4177   -3.1683    0.0000 C   0  0  0  0  0  0  0  0  0  0  0  0
    4.7151   -3.1683    0.0000 C   0  0  1  0  0  0  0  0  0  0  0  0
   -0.9911   -2.3433    0.0000 C   0  0  0  0  0  0  0  0  0  0  0  0
    5.4198   -3.5808    0.0000 O   0  0  0  0  0  0  0  0  0  0  0  0
    1.8448   -3.1683    0.0000 O   0  0  0  0  0  0  0  0  0  0  0  0
    1.8620   -0.6933    0.0000 C   0  0  0  0  0  0  0  0  0  0  0  0
    6.1417   -3.1683    0.0000 C   0  0  0  0  0  0  0  0  0  0  0  0
    6.8464   -3.5808    0.0000 C   0  0  0  0  0  0  0  0  0  0  0  0
    8.2730   -3.5808    0.0000 C   0  0  0  0  0  0  0  0  0  0  0  0
    7.5683   -4.8183    0.0000 C   0  0  0  0  0  0  0  0  0  0  0  0
    5.6433   -1.9308    0.0000 C   0  0  0  0  0  0  0  0  0  0  0  0
    6.4683   -1.1058    0.0000 C   0  0  0  0  0  0  0  0  0  0  0  0
    5.6433   -0.2808    0.0000 C   0  0  0  0  0  0  0  0  0  0  0  0
   -3.1395   -1.9308    0.0000 C   0  0  0  0  0  0  0  0  0  0  0  0
   -1.6958   -3.5808    0.0000 C   0  0  0  0  0  0  0  0  0  0  0  0
   -3.1395   -3.5980    0.0000 C   0  0  0  0  0  0  0  0  0  0  0  0
    7.5683   -3.1683    0.0000 C   0  0  0  0  0  0  0  0  0  0  0  0
    6.8464   -4.4058    0.0000 C   0  0  0  0  0  0  0  0  0  0  0  0
    2.5839   -1.1230    0.0000 C   0  0  0  0  0  0  0  0  0  0  0  0
    1.8620    0.1145    0.0000 C   0  0  0  0  0  0  0  0  0  0  0  0
   -3.8442   -3.1683    0.0000 C   0  0  0  0  0  0  0  0  0  0  0  0
   -3.8442   -2.3433    0.0000 C   0  0  0  0  0  0  0  0  0  0  0  0
    2.5839    0.5270    0.0000 C   0  0  0  0  0  0  0  0  0  0  0  0
    3.2886   -0.7105    0.0000 C   0  0  0  0  0  0  0  0  0  0  0  0
    3.2886    0.1145    0.0000 C   0  0  0  0  0  0  0  0  0  0  0  0
  3  2  1  6  0  0  0
  3  1  1  0  0  0  0
  4  2  1  0  0  0  0
  5  1  1  0  0  0  0
  6  8  1  0  0  0  0
  7  6  1  0  0  0  0
  8  5  1  0  0  0  0
  9  7  1  0  0  0  0
 10  3  1  0  0  0  0
 11  1  1  0  0  0  0
 12  2  2  0  0  0  0
 13 22  1  0  0  0  0
  6 14  1  1  0  0  0
 15  4  1  0  0  0  0
 16 13  1  0  0  0  0
 17 29  2  0  0  0  0
 18  9  2  0  0  0  0
 19 11  1  0  0  0  0
 20 16  1  0  0  0  0
 21 19  1  0  0  0  0
 22  9  1  0  0  0  0
 21 23  1  6  0  0  0
  8 24  1  1  0  0  0
 25 14  1  0  0  0  0
 26 23  1  0  0  0  0
 27 26  1  0  0  0  0
 28 36  2  0  0  0  0
 29 37  1  0  0  0  0
 30 15  1  0  0  0  0
 31 15  1  0  0  0  0
 32 15  1  0  0  0  0
 33 16  2  0  0  0  0
 34 20  1  0  0  0  0
 35 20  2  0  0  0  0
 36 27  1  0  0  0  0
 37 27  2  0  0  0  0
 38 25  2  0  0  0  0
 39 25  1  0  0  0  0
 40 41  2  0  0  0  0
 41 33  1  0  0  0  0
 42 39  2  0  0  0  0
 43 38  1  0  0  0  0
 44 42  1  0  0  0  0
 21 10  1  0  0  0  0
 28 17  1  0  0  0  0
 43 44  2  0  0  0  0
 35 40  1  0  0  0  0
M  END
>  <Mol Weight>
602.7635

>  <Formula>
C35H46N4O5

>  <chembl_id>
CHEMBL12449

$$$$

  Mrv0541 06201412482D          

 42 42  0  0  0  0            999 V2000
   10.9828   -5.7120    0.0000 N   0  0  0  0  0  0  0  0  0  0  0  0
   13.8417   -5.7120    0.0000 O   0  0  0  0  0  0  0  0  0  0  0  0
   12.4094   -5.7120    0.0000 C   0  0  0  0  0  0  0  0  0  0  0  0
    8.8230   -6.1245    0.0000 O   0  0  0  0  0  0  0  0  0  0  0  0
    2.3948   -5.7120    0.0000 O   0  0  0  0  0  0  0  0  0  0  0  0
    4.5433   -6.1245    0.0000 O   0  0  0  0  0  0  0  0  0  0  0  0
    6.6917   -5.7120    0.0000 O   0  0  0  0  0  0  0  0  0  0  0  0
    0.2636   -6.1245    0.0000 O   0  0  0  0  0  0  0  0  0  0  0  0
   14.5464   -5.3109    0.0000 C   0  0  0  0  0  0  0  0  0  0  0  0
   11.6933   -5.2995    0.0000 C   0  0  0  0  0  0  0  0  0  0  0  0
   13.1198   -5.2995    0.0000 C   0  0  0  0  0  0  0  0  0  0  0  0
   15.9730   -4.4859    0.0000 C   0  0  0  0  0  0  0  0  0  0  0  0
   -1.8848   -5.7120    0.0000 O   0  0  0  0  0  0  0  0  0  0  0  0
    9.5448   -5.7120    0.0000 C   0  0  0  0  0  0  0  0  0  0  0  0
    3.1167   -6.1245    0.0000 C   0  0  0  0  0  0  0  0  0  0  0  0
    0.9683   -5.7120    0.0000 C   0  0  0  0  0  0  0  0  0  0  0  0
    7.3964   -6.1245    0.0000 C   0  0  0  0  0  0  0  0  0  0  0  0
    5.2651   -5.7120    0.0000 C   0  0  0  0  0  0  0  0  0  0  0  0
   -4.0333   -6.1245    0.0000 N   0  0  0  0  0  0  0  0  0  0  0  0
   15.2625   -5.7234    0.0000 C   0  0  0  0  0  0  0  0  0  0  0  0
   14.5406   -4.4859    0.0000 C   0  0  0  0  0  0  0  0  0  0  0  0
   15.2511   -4.0734    0.0000 C   0  0  0  0  0  0  0  0  0  0  0  0
   15.9730   -5.3109    0.0000 C   0  0  0  0  0  0  0  0  0  0  0  0
   12.4094   -6.5370    0.0000 O   0  0  0  0  0  0  0  0  0  0  0  0
   16.6891   -4.0734    0.0000 O   0  0  0  0  0  0  0  0  0  0  0  0
   10.2667   -6.1245    0.0000 C   0  0  0  0  0  0  0  0  0  0  0  0
    8.1183   -5.7120    0.0000 C   0  0  0  0  0  0  0  0  0  0  0  0
    5.9698   -6.1245    0.0000 C   0  0  0  0  0  0  0  0  0  0  0  0
    1.6901   -6.1245    0.0000 C   0  0  0  0  0  0  0  0  0  0  0  0
    3.8214   -5.7120    0.0000 C   0  0  0  0  0  0  0  0  0  0  0  0
   -0.4583   -5.7120    0.0000 C   0  0  0  0  0  0  0  0  0  0  0  0
   -3.3114   -5.7120    0.0000 C   0  0  0  0  0  0  0  0  0  0  0  0
   -1.1802   -6.1245    0.0000 C   0  0  0  0  0  0  0  0  0  0  0  0
   -2.6067   -6.1245    0.0000 C   0  0  0  0  0  0  0  0  0  0  0  0
   16.6891   -3.2484    0.0000 C   0  0  0  0  0  0  0  0  0  0  0  0
   10.2667   -6.9495    0.0000 C   0  0  0  0  0  0  0  0  0  0  0  0
    5.9698   -6.9495    0.0000 C   0  0  0  0  0  0  0  0  0  0  0  0
    8.1183   -4.8870    0.0000 C   0  0  0  0  0  0  0  0  0  0  0  0
    1.6901   -6.9495    0.0000 C   0  0  0  0  0  0  0  0  0  0  0  0
    3.8214   -4.8870    0.0000 C   0  0  0  0  0  0  0  0  0  0  0  0
   -0.4583   -4.8870    0.0000 C   0  0  0  0  0  0  0  0  0  0  0  0
   -3.3114   -4.8870    0.0000 C   0  0  0  0  0  0  0  0  0  0  0  0
  2 11  1  0  0  0  0
  3 10  1  0  0  0  0
  4 14  1  0  0  0  0
  5 15  1  0  0  0  0
  6 18  1  0  0  0  0
  7 17  1  0  0  0  0
  8 16  1  0  0  0  0
  9  2  1  0  0  0  0
 10  1  1  0  0  0  0
 11  3  1  0  0  0  0
 12 22  1  0  0  0  0
 13 33  1  0  0  0  0
 14 26  1  0  0  0  0
 15 30  1  0  0  0  0
 16 29  1  0  0  0  0
 17 27  1  0  0  0  0
 18 28  1  0  0  0  0
 19 32  1  0  0  0  0
 20  9  2  0  0  0  0
 21  9  1  0  0  0  0
 22 21  2  0  0  0  0
 23 20  1  0  0  0  0
 24  3  1  0  0  0  0
 25 12  1  0  0  0  0
 26  1  1  0  0  0  0
 27  4  1  0  0  0  0
 28  7  1  0  0  0  0
 29  5  1  0  0  0  0
 30  6  1  0  0  0  0
 31  8  1  0  0  0  0
 32 34  1  0  0  0  0
 33 31  1  0  0  0  0
 34 13  1  0  0  0  0
 35 25  1  0  0  0  0
 36 26  1  0  0  0  0
 37 28  1  0  0  0  0
 38 27  1  0  0  0  0
 39 29  1  0  0  0  0
 40 30  1  0  0  0  0
 41 31  1  0  0  0  0
 42 32  1  0  0  0  0
 23 12  2  0  0  0  0
M  END
>  <Mol Weight>
602.8002

>  <Formula>
C31H58N2O9

>  <chembl_id>
CHEMBL12555

$$$$

  Mrv0541 06201412482D          

 42 45  0  0  0  0            999 V2000
    6.4865   -0.6804    0.0000 S   0  0  0  0  0  0  0  0  0  0  0  0
    2.1956   -0.6804    0.0000 N   0  0  0  0  0  0  0  0  0  0  0  0
    1.4443   -0.3381    0.0000 C   0  0  0  0  0  0  0  0  0  0  0  0
    7.1919    0.5718    0.0000 C   0  0  0  0  0  0  0  0  0  0  0  0
    6.4782    0.1461    0.0000 N   0  0  0  0  0  0  0  0  0  0  0  0
    1.3065   -1.6697    0.0000 N   0  0  0  0  0  0  0  0  0  0  0  0
    0.8933   -0.8640    0.0000 C   0  0  0  0  0  0  0  0  0  0  0  0
    2.1162   -1.4943    0.0000 C   0  0  0  0  0  0  0  0  0  0  0  0
    7.2671    1.3900    0.0000 C   0  0  0  0  0  0  0  0  0  0  0  0
    8.4942    0.8598    0.0000 N   0  0  0  0  0  0  0  0  0  0  0  0
    6.4907   -1.5027    0.0000 C   0  0  0  0  0  0  0  0  0  0  0  0
    7.9433    0.2379    0.0000 O   0  0  0  0  0  0  0  0  0  0  0  0
    5.7769   -1.9159    0.0000 C   0  0  0  0  0  0  0  0  0  0  0  0
    5.0632   -1.5069    0.0000 C   0  0  0  0  0  0  0  0  0  0  0  0
    1.3065    0.4758    0.0000 C   0  0  0  0  0  0  0  0  0  0  0  0
    8.0685    1.5736    0.0000 C   0  0  0  0  0  0  0  0  0  0  0  0
    4.3452   -1.9201    0.0000 C   0  0  0  0  0  0  0  0  0  0  0  0
    2.9177   -0.2672    0.0000 C   0  0  0  0  0  0  0  0  0  0  0  0
    5.7644   -0.2672    0.0000 O   0  0  0  0  0  0  0  0  0  0  0  0
    7.2003   -0.2630    0.0000 O   0  0  0  0  0  0  0  0  0  0  0  0
    5.0632   -0.6762    0.0000 C   0  0  0  0  0  0  0  0  0  0  0  0
    3.6314   -1.5069    0.0000 C   0  0  0  0  0  0  0  0  0  0  0  0
    3.6314   -0.6762    0.0000 C   0  0  0  0  0  0  0  0  0  0  0  0
    0.5301    0.7639    0.0000 O   0  0  0  0  0  0  0  0  0  0  0  0
    1.9451    1.0101    0.0000 N   0  0  0  0  0  0  0  0  0  0  0  0
    4.3452   -0.2630    0.0000 C   0  0  0  0  0  0  0  0  0  0  0  0
    6.6493    1.9367    0.0000 C   0  0  0  0  0  0  0  0  0  0  0  0
    0.0793   -0.7263    0.0000 C   0  0  0  0  0  0  0  0  0  0  0  0
    2.5212   -2.2081    0.0000 C   0  0  0  0  0  0  0  0  0  0  0  0
    5.7769   -2.7466    0.0000 C   0  0  0  0  0  0  0  0  0  0  0  0
    2.9094   -5.2260    0.0000 F   0  0  0  0  0  0  0  0  0  0  0  0
    4.3452   -2.7466    0.0000 C   0  0  0  0  0  0  0  0  0  0  0  0
    7.2045   -1.9076    0.0000 C   0  0  0  0  0  0  0  0  0  0  0  0
    8.4024    2.3249    0.0000 C   0  0  0  0  0  0  0  0  0  0  0  0
    3.6314   -3.1598    0.0000 O   0  0  0  0  0  0  0  0  0  0  0  0
    2.9094   -4.3995    0.0000 C   0  0  0  0  0  0  0  0  0  0  0  0
    3.6314   -3.9863    0.0000 C   0  0  0  0  0  0  0  0  0  0  0  0
    2.1079   -2.9219    0.0000 C   0  0  0  0  0  0  0  0  0  0  0  0
   -0.2087    0.0501    0.0000 C   0  0  0  0  0  0  0  0  0  0  0  0
    6.4907   -3.1556    0.0000 C   0  0  0  0  0  0  0  0  0  0  0  0
    7.2045   -2.7424    0.0000 C   0  0  0  0  0  0  0  0  0  0  0  0
    1.2815   -2.9177    0.0000 C   0  0  0  0  0  0  0  0  0  0  0  0
  2 18  1  0  0  0  0
  3  2  1  0  0  0  0
  4  5  1  0  0  0  0
  5  1  1  0  0  0  0
  6  8  2  0  0  0  0
  7  3  2  0  0  0  0
  8  2  1  0  0  0  0
  9  4  2  0  0  0  0
 10 12  1  0  0  0  0
 11  1  1  0  0  0  0
 12  4  1  0  0  0  0
 13 11  1  0  0  0  0
 14 13  1  0  0  0  0
 15  3  1  0  0  0  0
 16  9  1  0  0  0  0
 17 14  2  0  0  0  0
 18 23  1  0  0  0  0
 19  1  2  0  0  0  0
 20  1  2  0  0  0  0
 21 14  1  0  0  0  0
 22 17  1  0  0  0  0
 23 26  1  0  0  0  0
 24 15  2  0  0  0  0
 25 15  1  0  0  0  0
 26 21  2  0  0  0  0
 27  9  1  0  0  0  0
 28  7  1  0  0  0  0
 29  8  1  0  0  0  0
 30 13  2  0  0  0  0
 31 36  1  0  0  0  0
 32 17  1  0  0  0  0
 33 11  2  0  0  0  0
 34 16  1  0  0  0  0
 35 32  1  0  0  0  0
 36 37  1  0  0  0  0
 37 35  1  0  0  0  0
 38 29  1  0  0  0  0
 39 28  1  0  0  0  0
 40 41  2  0  0  0  0
 41 33  1  0  0  0  0
 42 38  1  0  0  0  0
 40 30  1  0  0  0  0
 16 10  2  0  0  0  0
 22 23  2  0  0  0  0
  6  7  1  0  0  0  0
M  END
>  <Mol Weight>
597.701

>  <Formula>
C30H36FN5O5S

>  <chembl_id>
CHEMBL12588

$$$$

  Mrv0541 06201412482D          

 43 46  0  0  1  0            999 V2000
    7.8777   -3.0308    0.0000 N   0  0  0  0  0  0  0  0  0  0  0  0
    8.5823   -1.7933    0.0000 C   0  0  0  0  0  0  0  0  0  0  0  0
    8.5823   -2.6183    0.0000 C   0  0  2  0  0  0  0  0  0  0  0  0
    9.4073   -1.7933    0.0000 N   0  0  0  0  0  0  0  0  0  0  0  0
    7.1558   -2.6183    0.0000 C   0  0  0  0  0  0  0  0  0  0  0  0
    5.7292   -2.6183    0.0000 C   0  0  2  0  0  0  0  0  0  0  0  0
    5.0245   -3.0308    0.0000 N   0  0  0  0  0  0  0  0  0  0  0  0
    6.4511   -3.0308    0.0000 C   0  0  2  0  0  0  0  0  0  0  0  0
    4.3027   -2.6183    0.0000 C   0  0  0  0  0  0  0  0  0  0  0  0
    9.3042   -3.0308    0.0000 C   0  0  0  0  0  0  0  0  0  0  0  0
    7.8777   -3.8558    0.0000 C   0  0  0  0  0  0  0  0  0  0  0  0
    8.5823   -0.9683    0.0000 O   0  0  0  0  0  0  0  0  0  0  0  0
    5.7292   -1.7933    0.0000 C   0  0  0  0  0  0  0  0  0  0  0  0
   10.2323   -1.7933    0.0000 C   0  0  0  0  0  0  0  0  0  0  0  0
   12.8620   -5.0933    0.0000 N   0  0  0  0  0  0  0  0  0  0  0  0
    4.3027   -1.7933    0.0000 O   0  0  0  0  0  0  0  0  0  0  0  0
    8.5823   -4.2683    0.0000 C   0  0  0  0  0  0  0  0  0  0  0  0
    9.3042   -3.8558    0.0000 C   0  0  1  0  0  0  0  0  0  0  0  0
    2.8761   -2.6183    0.0000 O   0  0  0  0  0  0  0  0  0  0  0  0
   10.0089   -4.2683    0.0000 O   0  0  0  0  0  0  0  0  0  0  0  0
    3.5808   -3.0136    0.0000 C   0  0  0  0  0  0  0  0  0  0  0  0
    6.4339   -3.8558    0.0000 O   0  0  0  0  0  0  0  0  0  0  0  0
    6.4511   -1.3808    0.0000 C   0  0  0  0  0  0  0  0  0  0  0  0
   10.7308   -3.8558    0.0000 C   0  0  0  0  0  0  0  0  0  0  0  0
    2.1714   -3.0308    0.0000 C   0  0  0  0  0  0  0  0  0  0  0  0
   11.4355   -4.2683    0.0000 C   0  0  0  0  0  0  0  0  0  0  0  0
   12.8620   -4.2683    0.0000 C   0  0  0  0  0  0  0  0  0  0  0  0
   12.1573   -5.5058    0.0000 C   0  0  0  0  0  0  0  0  0  0  0  0
   10.2323   -2.6183    0.0000 C   0  0  0  0  0  0  0  0  0  0  0  0
   11.0573   -1.7933    0.0000 C   0  0  0  0  0  0  0  0  0  0  0  0
   10.2323   -0.9683    0.0000 C   0  0  0  0  0  0  0  0  0  0  0  0
   11.4355   -5.0933    0.0000 C   0  0  0  0  0  0  0  0  0  0  0  0
   12.1573   -3.8558    0.0000 C   0  0  0  0  0  0  0  0  0  0  0  0
    6.4511   -0.5730    0.0000 C   0  0  0  0  0  0  0  0  0  0  0  0
    7.1730   -1.8105    0.0000 C   0  0  0  0  0  0  0  0  0  0  0  0
    2.1714   -3.8558    0.0000 C   0  0  0  0  0  0  0  0  0  0  0  0
    1.4495   -2.6183    0.0000 C   0  0  0  0  0  0  0  0  0  0  0  0
    1.4495   -4.2683    0.0000 C   0  0  0  0  0  0  0  0  0  0  0  0
    0.7448   -3.0308    0.0000 C   0  0  0  0  0  0  0  0  0  0  0  0
    7.8777   -1.3980    0.0000 C   0  0  0  0  0  0  0  0  0  0  0  0
    7.1730   -0.1605    0.0000 C   0  0  0  0  0  0  0  0  0  0  0  0
    7.8777   -0.5730    0.0000 C   0  0  0  0  0  0  0  0  0  0  0  0
    0.7448   -3.8558    0.0000 C   0  0  0  0  0  0  0  0  0  0  0  0
  3  2  1  6  0  0  0
  3  1  1  0  0  0  0
  4  2  1  0  0  0  0
  5  1  1  0  0  0  0
  6  8  1  0  0  0  0
  7  6  1  0  0  0  0
  8  5  1  0  0  0  0
  9  7  1  0  0  0  0
 10  3  1  0  0  0  0
 11  1  1  0  0  0  0
 12  2  2  0  0  0  0
  6 13  1  1  0  0  0
 14  4  1  0  0  0  0
 15 27  1  0  0  0  0
 16  9  2  0  0  0  0
 17 11  1  0  0  0  0
 18 17  1  0  0  0  0
 19 21  1  0  0  0  0
 18 20  1  6  0  0  0
 21  9  1  0  0  0  0
  8 22  1  1  0  0  0
 23 13  1  0  0  0  0
 24 20  1  0  0  0  0
 25 19  1  0  0  0  0
 26 24  1  0  0  0  0
 27 33  2  0  0  0  0
 28 32  1  0  0  0  0
 29 14  1  0  0  0  0
 30 14  1  0  0  0  0
 31 14  1  0  0  0  0
 32 26  2  0  0  0  0
 33 26  1  0  0  0  0
 34 23  1  0  0  0  0
 35 23  2  0  0  0  0
 36 25  1  0  0  0  0
 37 25  2  0  0  0  0
 38 36  2  0  0  0  0
 39 37  1  0  0  0  0
 40 35  1  0  0  0  0
 41 34  2  0  0  0  0
 42 40  2  0  0  0  0
 43 39  2  0  0  0  0
 18 10  1  0  0  0  0
 28 15  2  0  0  0  0
 41 42  1  0  0  0  0
 38 43  1  0  0  0  0
M  END
>  <Mol Weight>
588.737

>  <Formula>
C34H44N4O5

>  <chembl_id>
CHEMBL12705

$$$$

  Mrv0541 06201412482D          

 41 43  0  0  0  0            999 V2000
   -4.4014   -7.7125    0.0000 C   0  0  0  0  0  0  0  0  0  0  0  0
   -4.4026   -8.5398    0.0000 C   0  0  0  0  0  0  0  0  0  0  0  0
   -3.6878   -8.9527    0.0000 C   0  0  0  0  0  0  0  0  0  0  0  0
   -2.9713   -8.5394    0.0000 C   0  0  0  0  0  0  0  0  0  0  0  0
   -2.9742   -7.7088    0.0000 C   0  0  0  0  0  0  0  0  0  0  0  0
   -3.6896   -7.2997    0.0000 C   0  0  0  0  0  0  0  0  0  0  0  0
   -5.1174   -8.9518    0.0000 O   0  0  0  0  0  0  0  0  0  0  0  0
   -2.2613   -7.2936    0.0000 O   0  0  0  0  0  0  0  0  0  0  0  0
   -1.5453   -7.7034    0.0000 C   0  0  0  0  0  0  0  0  0  0  0  0
   -0.8323   -7.2883    0.0000 C   0  0  2  0  0  0  0  0  0  0  0  0
   -0.1163   -7.6981    0.0000 C   0  0  0  0  0  0  0  0  0  0  0  0
   -0.8355   -6.4633    0.0000 O   0  0  0  0  0  0  0  0  0  0  0  0
    0.5966   -7.2829    0.0000 N   0  0  0  0  0  0  0  0  0  0  0  0
    1.3126   -7.6927    0.0000 C   0  0  0  0  0  0  0  0  0  0  0  0
    2.0255   -7.2775    0.0000 C   0  0  0  0  0  0  0  0  0  0  0  0
    2.7415   -7.6873    0.0000 C   0  0  0  0  0  0  0  0  0  0  0  0
    2.7420   -8.5094    0.0000 C   0  0  0  0  0  0  0  0  0  0  0  0
    3.4572   -8.9191    0.0000 C   0  0  0  0  0  0  0  0  0  0  0  0
    4.1711   -8.5039    0.0000 C   0  0  0  0  0  0  0  0  0  0  0  0
    4.1653   -7.6746    0.0000 C   0  0  0  0  0  0  0  0  0  0  0  0
    3.4495   -7.2687    0.0000 C   0  0  0  0  0  0  0  0  0  0  0  0
    4.8876   -8.9128    0.0000 N   0  0  0  0  0  0  0  0  0  0  0  0
    5.6000   -8.4966    0.0000 S   0  0  0  0  0  0  0  0  0  0  0  0
    6.3083   -8.0792    0.0000 C   0  0  0  0  0  0  0  0  0  0  0  0
    6.0175   -9.2082    0.0000 O   0  0  0  0  0  0  0  0  0  0  0  0
    5.1849   -7.7836    0.0000 O   0  0  0  0  0  0  0  0  0  0  0  0
    7.0236   -8.4868    0.0000 C   0  0  0  0  0  0  0  0  0  0  0  0
    7.7315   -8.0701    0.0000 C   0  0  0  0  0  0  0  0  0  0  0  0
    7.7246   -7.2470    0.0000 C   0  0  0  0  0  0  0  0  0  0  0  0
    7.0039   -6.8425    0.0000 C   0  0  0  0  0  0  0  0  0  0  0  0
    6.2989   -7.2616    0.0000 C   0  0  0  0  0  0  0  0  0  0  0  0
    8.4348   -6.8272    0.0000 N   0  0  0  0  0  0  0  0  0  0  0  0
    9.1534   -7.2323    0.0000 C   0  0  0  0  0  0  0  0  0  0  0  0
    9.1619   -8.0573    0.0000 O   0  0  0  0  0  0  0  0  0  0  0  0
    9.8636   -6.8125    0.0000 N   0  0  0  0  0  0  0  0  0  0  0  0
   10.5823   -7.2177    0.0000 C   0  0  0  0  0  0  0  0  0  0  0  0
   11.2925   -6.7979    0.0000 C   0  0  0  0  0  0  0  0  0  0  0  0
   12.0112   -7.2030    0.0000 C   0  0  0  0  0  0  0  0  0  0  0  0
   12.7214   -6.7832    0.0000 C   0  0  0  0  0  0  0  0  0  0  0  0
   13.4400   -7.1883    0.0000 C   0  0  0  0  0  0  0  0  0  0  0  0
   14.1502   -6.7685    0.0000 C   0  0  0  0  0  0  0  0  0  0  0  0
  9 10  1  0  0  0  0
 20 21  2  0  0  0  0
 21 16  1  0  0  0  0
  2  3  1  0  0  0  0
 19 22  1  0  0  0  0
 10 11  1  0  0  0  0
 22 23  1  0  0  0  0
  5  6  2  0  0  0  0
 23 24  1  0  0  0  0
 10 12  1  1  0  0  0
 23 25  2  0  0  0  0
  6  1  1  0  0  0  0
 23 26  2  0  0  0  0
 11 13  1  0  0  0  0
 24 27  2  0  0  0  0
  1  2  2  0  0  0  0
 27 28  1  0  0  0  0
 13 14  1  0  0  0  0
 28 29  2  0  0  0  0
  2  7  1  0  0  0  0
 29 30  1  0  0  0  0
 14 15  1  0  0  0  0
 30 31  2  0  0  0  0
 31 24  1  0  0  0  0
  3  4  2  0  0  0  0
 29 32  1  0  0  0  0
 15 16  1  0  0  0  0
 32 33  1  0  0  0  0
  5  8  1  0  0  0  0
 33 34  2  0  0  0  0
 16 17  2  0  0  0  0
 33 35  1  0  0  0  0
 35 36  1  0  0  0  0
 17 18  1  0  0  0  0
 36 37  1  0  0  0  0
  8  9  1  0  0  0  0
 37 38  1  0  0  0  0
 18 19  2  0  0  0  0
 38 39  1  0  0  0  0
  4  5  1  0  0  0  0
 39 40  1  0  0  0  0
 19 20  1  0  0  0  0
 40 41  1  0  0  0  0
M  END
>  <Mol Weight>
584.727

>  <Formula>
C30H40N4O6S

>  <chembl_id>
CHEMBL12998

$$$$

  Mrv0541 06201412482D          

 42 42  0  0  1  0            999 V2000
   13.9448   -4.6980    0.0000 N   0  3  0  0  0  0  0  0  0  0  0  0
    4.6636   -3.4089    0.0000 C   0  0  0  0  0  0  0  0  0  0  0  0
    5.3855   -2.9964    0.0000 N   0  0  0  0  0  0  0  0  0  0  0  0
    7.5167   -6.7261    0.0000 C   0  0  0  0  0  0  0  0  0  0  0  0
    6.8120   -3.0136    0.0000 C   0  0  0  0  0  0  0  0  0  0  0  0
   13.2401   -4.2855    0.0000 C   0  0  0  0  0  0  0  0  0  0  0  0
   13.9448   -5.5401    0.0000 O   0  5  0  0  0  0  0  0  0  0  0  0
    6.0901   -3.4261    0.0000 C   0  0  1  0  0  0  0  0  0  0  0  0
    3.9589   -2.9964    0.0000 C   0  0  2  0  0  0  0  0  0  0  0  0
   14.6667   -4.3026    0.0000 O   0  0  0  0  0  0  0  0  0  0  0  0
    8.2214   -7.1558    0.0000 N   0  0  0  0  0  0  0  0  0  0  0  0
   13.4120   -8.6339    0.0000 C   0  0  0  0  0  0  0  0  0  0  0  0
    4.6636   -4.2339    0.0000 O   0  0  0  0  0  0  0  0  0  0  0  0
    6.8292   -2.1886    0.0000 O   0  0  0  0  0  0  0  0  0  0  0  0
    3.9589   -2.1714    0.0000 C   0  0  0  0  0  0  0  0  0  0  0  0
   13.8245   -7.9120    0.0000 O   0  0  0  0  0  0  0  0  0  0  0  0
    7.5167   -5.9183    0.0000 N   0  0  0  0  0  0  0  0  0  0  0  0
   13.2401   -3.4605    0.0000 C   0  0  0  0  0  0  0  0  0  0  0  0
   12.5183   -4.6980    0.0000 C   0  0  0  0  0  0  0  0  0  0  0  0
    7.5339   -3.4261    0.0000 N   0  0  0  0  0  0  0  0  0  0  0  0
    6.7948   -7.1386    0.0000 N   0  0  0  0  0  0  0  0  0  0  0  0
    3.2542   -1.7589    0.0000 C   0  0  0  0  0  0  0  0  0  0  0  0
    3.2370   -3.4089    0.0000 N   0  0  0  0  0  0  0  0  0  0  0  0
    1.8105   -0.9167    0.0000 C   0  0  0  0  0  0  0  0  0  0  0  0
   13.8245   -9.3386    0.0000 O   0  0  0  0  0  0  0  0  0  0  0  0
   11.8136   -4.2855    0.0000 C   0  0  0  0  0  0  0  0  0  0  0  0
   12.5355   -3.0480    0.0000 C   0  0  0  0  0  0  0  0  0  0  0  0
   11.8136   -3.4605    0.0000 C   0  0  0  0  0  0  0  0  0  0  0  0
    9.6823   -3.0308    0.0000 S   0  0  0  0  0  0  0  0  0  0  0  0
    2.5323   -2.1542    0.0000 C   0  0  0  0  0  0  0  0  0  0  0  0
    3.2542   -0.9167    0.0000 C   0  0  0  0  0  0  0  0  0  0  0  0
    1.8105   -1.7417    0.0000 C   0  0  0  0  0  0  0  0  0  0  0  0
    2.5323   -0.5042    0.0000 C   0  0  0  0  0  0  0  0  0  0  0  0
    1.1058   -0.5042    0.0000 O   0  0  0  0  0  0  0  0  0  0  0  0
   12.5870   -8.6339    0.0000 C   0  0  0  0  0  0  0  0  0  0  0  0
    6.0901   -4.2511    0.0000 C   0  0  0  0  0  0  0  0  0  0  0  0
    8.2558   -3.0136    0.0000 C   0  0  0  0  0  0  0  0  0  0  0  0
    6.8120   -5.4886    0.0000 C   0  0  0  0  0  0  0  0  0  0  0  0
    8.9605   -3.4433    0.0000 C   0  0  0  0  0  0  0  0  0  0  0  0
   10.3870   -3.4433    0.0000 C   0  0  0  0  0  0  0  0  0  0  0  0
   11.1089   -3.0480    0.0000 C   0  0  0  0  0  0  0  0  0  0  0  0
    6.8120   -4.6636    0.0000 C   0  0  0  0  0  0  0  0  0  0  0  0
  2  3  1  0  0  0  0
  3  8  1  0  0  0  0
  4 17  2  0  0  0  0
  5 20  1  0  0  0  0
  6  1  1  0  0  0  0
  7  1  1  0  0  0  0
  8  5  1  0  0  0  0
  9  2  1  0  0  0  0
 10  1  2  0  0  0  0
 11  4  1  0  0  0  0
 13  2  2  0  0  0  0
 14  5  2  0  0  0  0
  9 15  1  1  0  0  0
 16 12  2  0  0  0  0
 17 38  1  0  0  0  0
 18  6  1  0  0  0  0
 19  6  2  0  0  0  0
 20 37  1  0  0  0  0
 21  4  1  0  0  0  0
 22 15  1  0  0  0  0
 23  9  1  0  0  0  0
 24 32  1  0  0  0  0
 25 12  1  0  0  0  0
 26 19  1  0  0  0  0
 27 18  2  0  0  0  0
 28 26  2  0  0  0  0
 29 40  1  0  0  0  0
 30 22  1  0  0  0  0
 31 22  2  0  0  0  0
 32 30  2  0  0  0  0
 33 31  1  0  0  0  0
 34 24  1  0  0  0  0
 35 12  1  0  0  0  0
  8 36  1  1  0  0  0
 37 39  1  0  0  0  0
 38 42  1  0  0  0  0
 39 29  1  0  0  0  0
 40 41  1  0  0  0  0
 41 28  1  0  0  0  0
 42 36  1  0  0  0  0
 27 28  1  0  0  0  0
 33 24  2  0  0  0  0
M  CHG  2   1   1   7  -1
M  END
>  <Mol Weight>
605.706

>  <Formula>
C27H39N7O7S

>  <chembl_id>
CHEMBL13063

$$$$

  Mrv0541 06201412482D          

 41 43  0  0  1  0            999 V2000
   10.1209   -2.4593    0.0000 S   0  0  0  0  0  0  0  0  0  0  0  0
   10.1209   -1.6326    0.0000 N   0  0  0  0  0  0  0  0  0  0  0  0
   10.1126   -3.2860    0.0000 C   0  0  0  0  0  0  0  0  0  0  0  0
    8.6930   -5.7494    0.0000 C   0  0  0  0  0  0  0  0  0  0  0  0
    9.4070   -2.8726    0.0000 O   0  0  0  0  0  0  0  0  0  0  0  0
   10.8391   -2.8726    0.0000 O   0  0  0  0  0  0  0  0  0  0  0  0
    9.3944   -3.6868    0.0000 C   0  0  0  0  0  0  0  0  0  0  0  0
    8.6596   -4.9269    0.0000 N   0  0  0  0  0  0  0  0  0  0  0  0
    9.3736   -4.4968    0.0000 C   0  0  0  0  0  0  0  0  0  0  0  0
    9.4195   -6.1419    0.0000 O   0  0  0  0  0  0  0  0  0  0  0  0
    7.9832   -6.1795    0.0000 N   0  0  0  0  0  0  0  0  0  0  0  0
    9.4070   -1.2192    0.0000 C   0  0  0  0  0  0  0  0  0  0  0  0
    2.9686    0.0208    0.0000 O   0  0  0  0  0  0  0  0  0  0  0  0
    2.2463   -0.4050    0.0000 C   0  0  0  0  0  0  0  0  0  0  0  0
    4.4008    0.0208    0.0000 C   0  0  1  0  0  0  0  0  0  0  0  0
    0.8184   -1.2317    0.0000 C   0  0  0  0  0  0  0  0  0  0  0  0
    3.6868   -0.3925    0.0000 C   0  0  0  0  0  0  0  0  0  0  0  0
    5.8288    0.0208    0.0000 N   0  0  0  0  0  0  0  0  0  0  0  0
    7.9707   -0.3925    0.0000 C   0  0  0  0  0  0  0  0  0  0  0  0
    8.6847   -1.6326    0.0000 C   0  0  0  0  0  0  0  0  0  0  0  0
    9.3986   -0.3925    0.0000 C   0  0  0  0  0  0  0  0  0  0  0  0
    2.2463   -1.2317    0.0000 C   0  0  0  0  0  0  0  0  0  0  0  0
    1.5324    0.0083    0.0000 C   0  0  0  0  0  0  0  0  0  0  0  0
    1.5324   -1.6451    0.0000 C   0  0  0  0  0  0  0  0  0  0  0  0
    0.8184   -0.4050    0.0000 C   0  0  0  0  0  0  0  0  0  0  0  0
    7.9707   -1.2192    0.0000 C   0  0  0  0  0  0  0  0  0  0  0  0
    8.6847    0.0208    0.0000 C   0  0  0  0  0  0  0  0  0  0  0  0
    4.3966    0.8476    0.0000 O   0  0  0  0  0  0  0  0  0  0  0  0
    0.1044   -1.6451    0.0000 O   0  0  0  0  0  0  0  0  0  0  0  0
   10.8224   -3.6994    0.0000 C   0  0  0  0  0  0  0  0  0  0  0  0
   10.8141   -4.5261    0.0000 C   0  0  0  0  0  0  0  0  0  0  0  0
    5.1148   -0.3925    0.0000 C   0  0  0  0  0  0  0  0  0  0  0  0
   10.1001   -4.9269    0.0000 C   0  0  0  0  0  0  0  0  0  0  0  0
    7.1523   -6.2045    0.0000 C   0  0  0  0  0  0  0  0  0  0  0  0
    6.5427   -0.3925    0.0000 C   0  0  0  0  0  0  0  0  0  0  0  0
    7.2567    0.0208    0.0000 C   0  0  0  0  0  0  0  0  0  0  0  0
    6.7682   -6.9519    0.0000 C   0  0  0  0  0  0  0  0  0  0  0  0
    4.7139   -7.7327    0.0000 C   0  0  0  0  0  0  0  0  0  0  0  0
    5.5407   -7.7076    0.0000 C   0  0  0  0  0  0  0  0  0  0  0  0
    5.9290   -6.9769    0.0000 C   0  0  0  0  0  0  0  0  0  0  0  0
    4.3256   -8.4592    0.0000 C   0  0  0  0  0  0  0  0  0  0  0  0
  2  1  1  0  0  0  0
  3  1  1  0  0  0  0
  4  8  1  0  0  0  0
  5  1  2  0  0  0  0
  6  1  2  0  0  0  0
  7  3  2  0  0  0  0
  8  9  1  0  0  0  0
  9  7  1  0  0  0  0
 10  4  2  0  0  0  0
 11  4  1  0  0  0  0
 12  2  1  0  0  0  0
 13 17  1  0  0  0  0
 14 13  1  0  0  0  0
 15 32  1  0  0  0  0
 16 25  2  0  0  0  0
 17 15  1  0  0  0  0
 18 35  1  0  0  0  0
 19 27  1  0  0  0  0
 20 12  2  0  0  0  0
 21 12  1  0  0  0  0
 22 14  1  0  0  0  0
 23 14  2  0  0  0  0
 24 22  2  0  0  0  0
 25 23  1  0  0  0  0
 26 20  1  0  0  0  0
 27 21  2  0  0  0  0
 15 28  1  1  0  0  0
 29 16  1  0  0  0  0
 30  3  1  0  0  0  0
 31 30  2  0  0  0  0
 32 18  1  0  0  0  0
 33 31  1  0  0  0  0
 34 11  1  0  0  0  0
 35 36  1  0  0  0  0
 36 19  1  0  0  0  0
 37 34  1  0  0  0  0
 38 39  1  0  0  0  0
 39 40  1  0  0  0  0
 40 37  1  0  0  0  0
 41 38  1  0  0  0  0
  9 33  2  0  0  0  0
 19 26  2  0  0  0  0
 24 16  1  0  0  0  0
M  END
>  <Mol Weight>
584.727

>  <Formula>
C30H40N4O6S

>  <chembl_id>
CHEMBL12864

$$$$

  Mrv0541 06201412482D          

 39 42  0  0  1  0            999 V2000
    1.4781   -0.8250    0.0000 S   0  0  0  0  0  0  0  0  0  0  0  0
    2.3031   -0.8250    0.0000 N   0  0  0  0  0  0  0  0  0  0  0  0
    2.7156   -1.5355    0.0000 C   0  0  2  0  0  0  0  0  0  0  0  0
    3.5406   -1.5355    0.0000 C   0  0  0  0  0  0  0  0  0  0  0  0
    1.4781    0.0000    0.0000 C   0  0  0  0  0  0  0  0  0  0  0  0
    3.9531   -2.2402    0.0000 N   0  0  0  0  0  0  0  0  0  0  0  0
    0.7620    0.4239    0.0000 C   0  0  0  0  0  0  0  0  0  0  0  0
    0.0516    0.0114    0.0000 N   0  0  0  0  0  0  0  0  0  0  0  0
    0.6531   -0.8136    0.0000 O   0  0  0  0  0  0  0  0  0  0  0  0
    1.4667   -1.6500    0.0000 O   0  0  0  0  0  0  0  0  0  0  0  0
    3.9531   -0.8250    0.0000 O   0  0  0  0  0  0  0  0  0  0  0  0
    2.4980   -2.3261    0.0000 C   0  0  0  0  0  0  0  0  0  0  0  0
    4.7781   -2.2402    0.0000 C   0  0  0  0  0  0  0  0  0  0  0  0
    3.5406   -2.9620    0.0000 C   0  0  0  0  0  0  0  0  0  0  0  0
    2.2000    1.2375    0.0000 N   0  0  0  0  0  0  0  0  0  0  0  0
   -0.6645    0.4239    0.0000 C   0  0  1  0  0  0  0  0  0  0  0  0
    2.1886    0.4125    0.0000 C   0  0  0  0  0  0  0  0  0  0  0  0
    0.7620    1.2375    0.0000 C   0  0  0  0  0  0  0  0  0  0  0  0
   -1.3750    0.0114    0.0000 C   0  0  0  0  0  0  0  0  0  0  0  0
    3.9417   -3.6667    0.0000 C   0  0  0  0  0  0  0  0  0  0  0  0
    5.1792   -2.9620    0.0000 C   0  0  0  0  0  0  0  0  0  0  0  0
   -2.0969    0.4239    0.0000 C   0  0  0  0  0  0  0  0  0  0  0  0
    5.1792   -5.8152    0.0000 F   0  0  0  0  0  0  0  0  0  0  0  0
    4.7667   -3.6781    0.0000 C   0  0  0  0  0  0  0  0  0  0  0  0
    1.4781    1.6500    0.0000 C   0  0  0  0  0  0  0  0  0  0  0  0
    0.0573    1.8333    0.0000 O   0  0  0  0  0  0  0  0  0  0  0  0
   -0.6645    1.2489    0.0000 C   0  0  0  0  0  0  0  0  0  0  0  0
    1.7016   -2.5323    0.0000 C   0  0  0  0  0  0  0  0  0  0  0  0
    3.0766   -2.9105    0.0000 C   0  0  0  0  0  0  0  0  0  0  0  0
    4.7667   -5.1047    0.0000 C   0  0  0  0  0  0  0  0  0  0  0  0
    5.1792   -4.3886    0.0000 C   0  0  0  0  0  0  0  0  0  0  0  0
   -2.8130    0.0114    0.0000 C   0  0  0  0  0  0  0  0  0  0  0  0
   -2.0969    1.2489    0.0000 C   0  0  0  0  0  0  0  0  0  0  0  0
    2.8589   -3.7011    0.0000 C   0  0  0  0  0  0  0  0  0  0  0  0
    1.4839   -3.3230    0.0000 C   0  0  0  0  0  0  0  0  0  0  0  0
   -3.5234    0.4239    0.0000 C   0  0  0  0  0  0  0  0  0  0  0  0
   -2.8130    1.6614    0.0000 C   0  0  0  0  0  0  0  0  0  0  0  0
   -3.5234    1.2489    0.0000 C   0  0  0  0  0  0  0  0  0  0  0  0
    2.0511   -3.9073    0.0000 C   0  0  0  0  0  0  0  0  0  0  0  0
  2  1  1  0  0  0  0
  3  2  1  0  0  0  0
  4  3  1  0  0  0  0
  5  1  1  0  0  0  0
  6  4  1  0  0  0  0
  7  5  2  0  0  0  0
  8  7  1  0  0  0  0
  9  1  2  0  0  0  0
 10  1  2  0  0  0  0
 11  4  2  0  0  0  0
  3 12  1  6  0  0  0
 13  6  1  0  0  0  0
 14  6  1  0  0  0  0
 15 17  2  0  0  0  0
 16  8  1  0  0  0  0
 17  5  1  0  0  0  0
 18  7  1  0  0  0  0
 19 16  1  0  0  0  0
 20 14  1  0  0  0  0
 21 13  1  0  0  0  0
 22 19  1  0  0  0  0
 23 30  1  0  0  0  0
 24 20  1  0  0  0  0
 25 15  1  0  0  0  0
 26 27  1  0  0  0  0
 16 27  1  1  0  0  0
 28 12  1  0  0  0  0
 29 12  1  0  0  0  0
 30 31  1  0  0  0  0
 31 24  1  0  0  0  0
 32 22  2  0  0  0  0
 33 22  1  0  0  0  0
 34 29  1  0  0  0  0
 35 28  1  0  0  0  0
 36 32  1  0  0  0  0
 37 33  2  0  0  0  0
 38 37  1  0  0  0  0
 39 34  1  0  0  0  0
 18 25  2  0  0  0  0
 39 35  1  0  0  0  0
 24 21  1  0  0  0  0
 36 38  2  0  0  0  0
M  END
>  <Mol Weight>
560.724

>  <Formula>
C29H41FN4O4S

>  <chembl_id>
CHEMBL12670

$$$$

  Mrv0541 06201412482D          

 39 42  0  0  1  0            999 V2000
    7.3792   -3.5980    0.0000 S   0  0  0  0  0  0  0  0  0  0  0  0
    8.2042   -3.5980    0.0000 N   0  0  0  0  0  0  0  0  0  0  0  0
    8.6167   -4.3141    0.0000 C   0  0  2  0  0  0  0  0  0  0  0  0
    9.4417   -4.3141    0.0000 C   0  0  0  0  0  0  0  0  0  0  0  0
    7.3906   -2.7730    0.0000 C   0  0  0  0  0  0  0  0  0  0  0  0
    9.8542   -5.0245    0.0000 N   0  0  0  0  0  0  0  0  0  0  0  0
    6.6745   -2.3605    0.0000 C   0  0  0  0  0  0  0  0  0  0  0  0
    5.9641   -2.7672    0.0000 N   0  0  0  0  0  0  0  0  0  0  0  0
    6.5542   -3.5980    0.0000 O   0  0  0  0  0  0  0  0  0  0  0  0
    7.3792   -4.4230    0.0000 O   0  0  0  0  0  0  0  0  0  0  0  0
    9.8542   -3.5980    0.0000 O   0  0  0  0  0  0  0  0  0  0  0  0
    8.2558   -5.0188    0.0000 C   0  0  0  0  0  0  0  0  0  0  0  0
   10.6906   -5.0245    0.0000 C   0  0  0  0  0  0  0  0  0  0  0  0
    9.4417   -5.7406    0.0000 C   0  0  0  0  0  0  0  0  0  0  0  0
    8.1125   -1.5355    0.0000 N   0  0  0  0  0  0  0  0  0  0  0  0
    7.3964   -6.4339    0.0000 N   0  0  0  0  0  0  0  0  0  0  0  0
    5.2480   -2.3547    0.0000 C   0  0  1  0  0  0  0  0  0  0  0  0
    8.1011   -2.3605    0.0000 C   0  0  0  0  0  0  0  0  0  0  0  0
    6.6745   -1.5355    0.0000 C   0  0  0  0  0  0  0  0  0  0  0  0
    4.5375   -2.7730    0.0000 C   0  0  0  0  0  0  0  0  0  0  0  0
   11.0917   -5.7464    0.0000 C   0  0  0  0  0  0  0  0  0  0  0  0
    9.8542   -6.4511    0.0000 C   0  0  0  0  0  0  0  0  0  0  0  0
    3.8156   -2.3605    0.0000 C   0  0  0  0  0  0  0  0  0  0  0  0
   11.0917   -8.5995    0.0000 F   0  0  0  0  0  0  0  0  0  0  0  0
   10.6792   -6.4511    0.0000 C   0  0  0  0  0  0  0  0  0  0  0  0
    7.3906   -1.1230    0.0000 C   0  0  0  0  0  0  0  0  0  0  0  0
    5.9698   -0.9511    0.0000 O   0  0  0  0  0  0  0  0  0  0  0  0
    7.0011   -5.7063    0.0000 C   0  0  0  0  0  0  0  0  0  0  0  0
    8.2328   -6.4453    0.0000 C   0  0  0  0  0  0  0  0  0  0  0  0
    5.2480   -1.5297    0.0000 C   0  0  0  0  0  0  0  0  0  0  0  0
    7.4308   -4.9902    0.0000 C   0  0  0  0  0  0  0  0  0  0  0  0
    8.6511   -5.7406    0.0000 C   0  0  0  0  0  0  0  0  0  0  0  0
   10.6792   -7.8777    0.0000 C   0  0  0  0  0  0  0  0  0  0  0  0
   11.0917   -7.1730    0.0000 C   0  0  0  0  0  0  0  0  0  0  0  0
    3.8156   -1.5297    0.0000 C   0  0  0  0  0  0  0  0  0  0  0  0
    3.0995   -2.7730    0.0000 C   0  0  0  0  0  0  0  0  0  0  0  0
    3.0995   -1.1172    0.0000 C   0  0  0  0  0  0  0  0  0  0  0  0
    2.3891   -2.3605    0.0000 C   0  0  0  0  0  0  0  0  0  0  0  0
    2.3891   -1.5355    0.0000 C   0  0  0  0  0  0  0  0  0  0  0  0
  2  1  1  0  0  0  0
  3  2  1  0  0  0  0
  4  3  1  0  0  0  0
  5  1  1  0  0  0  0
  6  4  1  0  0  0  0
  7  5  2  0  0  0  0
  8  7  1  0  0  0  0
  9  1  2  0  0  0  0
 10  1  2  0  0  0  0
 11  4  2  0  0  0  0
  3 12  1  6  0  0  0
 13  6  1  0  0  0  0
 14  6  1  0  0  0  0
 15 18  2  0  0  0  0
 16 29  1  0  0  0  0
 17  8  1  0  0  0  0
 18  5  1  0  0  0  0
 19  7  1  0  0  0  0
 20 17  1  0  0  0  0
 21 13  1  0  0  0  0
 22 14  1  0  0  0  0
 23 20  1  0  0  0  0
 24 33  1  0  0  0  0
 25 22  1  0  0  0  0
 26 15  1  0  0  0  0
 27 30  1  0  0  0  0
 28 31  1  0  0  0  0
 29 32  2  0  0  0  0
 17 30  1  1  0  0  0
 31 12  2  0  0  0  0
 32 12  1  0  0  0  0
 33 34  1  0  0  0  0
 34 25  1  0  0  0  0
 35 23  1  0  0  0  0
 36 23  2  0  0  0  0
 37 35  2  0  0  0  0
 38 36  1  0  0  0  0
 39 38  2  0  0  0  0
 19 26  2  0  0  0  0
 16 28  2  0  0  0  0
 25 21  1  0  0  0  0
 39 37  1  0  0  0  0
M  END
>  <Mol Weight>
555.664

>  <Formula>
C28H34FN5O4S

>  <chembl_id>
CHEMBL12921

$$$$

  Mrv0541 06201412482D          

 44 46  0  0  1  0            999 V2000
    2.0292   -1.1125    0.0000 C   0  0  0  0  0  0  0  0  0  0  0  0
    0.6000   -0.2917    0.0000 C   0  0  0  0  0  0  0  0  0  0  0  0
    1.3167   -1.5292    0.0000 O   0  0  0  0  0  0  0  0  0  0  0  0
    1.3125    0.1208    0.0000 O   0  0  0  0  0  0  0  0  0  0  0  0
    4.1667    0.1375    0.0000 N   0  0  0  0  0  0  0  0  0  0  0  0
    4.8917   -1.0917    0.0000 C   0  0  0  0  0  0  0  0  0  0  0  0
    0.6042   -1.1167    0.0000 C   0  0  1  0  0  0  0  0  0  0  0  0
    4.1792   -1.5125    0.0000 N   0  0  0  0  0  0  0  0  0  0  0  0
    4.8875   -0.2667    0.0000 C   0  0  1  0  0  0  0  0  0  0  0  0
    2.7500   -1.5167    0.0000 C   0  0  1  0  0  0  0  0  0  0  0  0
    4.1625    0.9625    0.0000 C   0  0  0  0  0  0  0  0  0  0  0  0
    1.3042    0.9458    0.0000 C   0  0  2  0  0  0  0  0  0  0  0  0
    3.4625   -1.1042    0.0000 C   0  0  0  0  0  0  0  0  0  0  0  0
    2.0292   -0.2875    0.0000 O   0  0  0  0  0  0  0  0  0  0  0  0
   -0.1208    0.1208    0.0000 O   0  0  0  0  0  0  0  0  0  0  0  0
    3.4417    1.3708    0.0000 C   0  0  0  0  0  0  0  0  0  0  0  0
    5.5917    0.1458    0.0000 C   0  0  0  0  0  0  0  0  0  0  0  0
    5.6042   -1.5042    0.0000 O   0  0  0  0  0  0  0  0  0  0  0  0
    2.7292    0.9583    0.0000 C   0  0  0  0  0  0  0  0  0  0  0  0
   -0.1083   -1.5292    0.0000 C   0  0  0  0  0  0  0  0  0  0  0  0
    4.8750    1.3833    0.0000 O   0  0  0  0  0  0  0  0  0  0  0  0
    0.5917    1.3583    0.0000 C   0  0  0  0  0  0  0  0  0  0  0  0
   -0.1208    0.9375    0.0000 C   0  0  0  0  0  0  0  0  0  0  0  0
    6.3125   -0.2625    0.0000 C   0  0  0  0  0  0  0  0  0  0  0  0
    7.7417   -1.0792    0.0000 C   0  0  0  0  0  0  0  0  0  0  0  0
   -0.8458    1.3500    0.0000 C   0  0  0  0  0  0  0  0  0  0  0  0
    2.0167    1.3625    0.0000 C   0  0  0  0  0  0  0  0  0  0  0  0
    7.0167    0.1583    0.0000 C   0  0  0  0  0  0  0  0  0  0  0  0
    6.3167   -1.0875    0.0000 C   0  0  0  0  0  0  0  0  0  0  0  0
    7.0292   -1.4917    0.0000 C   0  0  0  0  0  0  0  0  0  0  0  0
    7.7375   -0.2500    0.0000 C   0  0  0  0  0  0  0  0  0  0  0  0
    0.5792    2.1833    0.0000 O   0  0  0  0  0  0  0  0  0  0  0  0
   -1.5500    0.9333    0.0000 C   0  0  0  0  0  0  0  0  0  0  0  0
    8.4625   -1.4875    0.0000 O   0  0  0  0  0  0  0  0  0  0  0  0
    2.7542   -2.3417    0.0000 C   0  0  0  0  0  0  0  0  0  0  0  0
   -0.1083   -2.3542    0.0000 C   0  0  0  0  0  0  0  0  0  0  0  0
   -2.2708    1.3458    0.0000 C   0  0  0  0  0  0  0  0  0  0  0  0
   -1.5458    0.1083    0.0000 C   0  0  0  0  0  0  0  0  0  0  0  0
    8.4667   -2.3125    0.0000 C   0  0  0  0  0  0  0  0  0  0  0  0
    0.6125   -2.7667    0.0000 C   0  0  0  0  0  0  0  0  0  0  0  0
   -0.8208   -2.7750    0.0000 C   0  0  0  0  0  0  0  0  0  0  0  0
   -2.2500   -0.3042    0.0000 C   0  0  0  0  0  0  0  0  0  0  0  0
   -2.9750    0.9250    0.0000 C   0  0  0  0  0  0  0  0  0  0  0  0
   -2.9708    0.1000    0.0000 C   0  0  0  0  0  0  0  0  0  0  0  0
  2  7  1  0  0  0  0
  3  1  1  0  0  0  0
  4  2  1  0  0  0  0
  5  9  1  0  0  0  0
  6  8  1  0  0  0  0
  7  3  1  0  0  0  0
  8 13  1  0  0  0  0
  9  6  1  0  0  0  0
 10  1  1  0  0  0  0
 11  5  1  0  0  0  0
 12  4  1  0  0  0  0
 13 10  1  0  0  0  0
 14  1  2  0  0  0  0
 15  2  2  0  0  0  0
 16 11  1  0  0  0  0
  9 17  1  6  0  0  0
 18  6  2  0  0  0  0
 19 27  1  0  0  0  0
  7 20  1  1  0  0  0
 21 11  2  0  0  0  0
 12 22  1  6  0  0  0
 23 22  1  0  0  0  0
 24 17  1  0  0  0  0
 25 30  2  0  0  0  0
 26 23  1  0  0  0  0
 27 12  1  0  0  0  0
 28 24  1  0  0  0  0
 29 24  2  0  0  0  0
 30 29  1  0  0  0  0
 31 28  2  0  0  0  0
 32 22  1  0  0  0  0
 33 26  1  0  0  0  0
 34 25  1  0  0  0  0
 10 35  1  1  0  0  0
 36 20  1  0  0  0  0
 37 33  2  0  0  0  0
 38 33  1  0  0  0  0
 39 34  1  0  0  0  0
 40 36  1  0  0  0  0
 41 36  1  0  0  0  0
 42 38  2  0  0  0  0
 43 37  1  0  0  0  0
 44 42  1  0  0  0  0
 16 19  2  0  0  0  0
 25 31  1  0  0  0  0
 44 43  2  0  0  0  0
M  END
>  <Mol Weight>
608.7218

>  <Formula>
C34H44N2O8

>  <chembl_id>
CHEMBL12924

$$$$

  Mrv0541 06201412482D          

 44 47  0  0  1  0            999 V2000
    2.7214   -3.3401    0.0000 N   0  0  0  0  0  0  0  0  0  0  0  0
    3.4261   -2.1026    0.0000 C   0  0  0  0  0  0  0  0  0  0  0  0
    3.4261   -2.9276    0.0000 C   0  0  2  0  0  0  0  0  0  0  0  0
    4.2511   -2.1026    0.0000 N   0  0  0  0  0  0  0  0  0  0  0  0
    1.9995   -2.9276    0.0000 C   0  0  0  0  0  0  0  0  0  0  0  0
    0.5730   -2.9276    0.0000 C   0  0  2  0  0  0  0  0  0  0  0  0
   -0.1317   -3.3401    0.0000 N   0  0  0  0  0  0  0  0  0  0  0  0
    1.2948   -3.3401    0.0000 C   0  0  2  0  0  0  0  0  0  0  0  0
   -0.8536   -2.9219    0.0000 C   0  0  0  0  0  0  0  0  0  0  0  0
    4.1480   -3.3401    0.0000 C   0  0  0  0  0  0  0  0  0  0  0  0
    2.7214   -4.1651    0.0000 C   0  0  0  0  0  0  0  0  0  0  0  0
    3.4261   -1.2776    0.0000 O   0  0  0  0  0  0  0  0  0  0  0  0
    0.5730   -2.1026    0.0000 C   0  0  0  0  0  0  0  0  0  0  0  0
    5.0761   -2.1026    0.0000 C   0  0  0  0  0  0  0  0  0  0  0  0
    7.7058   -5.4026    0.0000 N   0  0  0  0  0  0  0  0  0  0  0  0
   -2.9848   -3.3401    0.0000 C   0  0  0  0  0  0  0  0  0  0  0  0
   -0.8536   -2.0969    0.0000 O   0  0  0  0  0  0  0  0  0  0  0  0
    3.4261   -4.5776    0.0000 C   0  0  0  0  0  0  0  0  0  0  0  0
   -2.2802   -2.9219    0.0000 C   0  0  0  0  0  0  0  0  0  0  0  0
   -2.9848   -4.1651    0.0000 C   0  0  0  0  0  0  0  0  0  0  0  0
    4.1480   -4.1651    0.0000 C   0  0  1  0  0  0  0  0  0  0  0  0
    4.8526   -4.5776    0.0000 O   0  0  0  0  0  0  0  0  0  0  0  0
   -1.5583   -3.3344    0.0000 C   0  0  0  0  0  0  0  0  0  0  0  0
    1.2776   -4.1651    0.0000 O   0  0  0  0  0  0  0  0  0  0  0  0
    1.2948   -1.6901    0.0000 C   0  0  0  0  0  0  0  0  0  0  0  0
    5.5745   -4.1651    0.0000 C   0  0  0  0  0  0  0  0  0  0  0  0
    6.2792   -4.5776    0.0000 C   0  0  0  0  0  0  0  0  0  0  0  0
    7.7058   -4.5776    0.0000 C   0  0  0  0  0  0  0  0  0  0  0  0
    7.0011   -5.8151    0.0000 C   0  0  0  0  0  0  0  0  0  0  0  0
    5.0761   -2.9276    0.0000 C   0  0  0  0  0  0  0  0  0  0  0  0
    5.9011   -2.1026    0.0000 C   0  0  0  0  0  0  0  0  0  0  0  0
    5.0761   -1.2776    0.0000 C   0  0  0  0  0  0  0  0  0  0  0  0
   -3.7067   -2.9276    0.0000 C   0  0  0  0  0  0  0  0  0  0  0  0
   -2.2630   -4.5776    0.0000 C   0  0  0  0  0  0  0  0  0  0  0  0
   -3.7067   -4.5891    0.0000 C   0  0  0  0  0  0  0  0  0  0  0  0
    7.0011   -4.1651    0.0000 C   0  0  0  0  0  0  0  0  0  0  0  0
    6.2792   -5.4026    0.0000 C   0  0  0  0  0  0  0  0  0  0  0  0
    2.0167   -2.1141    0.0000 C   0  0  0  0  0  0  0  0  0  0  0  0
    1.2948   -0.8766    0.0000 C   0  0  0  0  0  0  0  0  0  0  0  0
   -4.4114   -4.1651    0.0000 C   0  0  0  0  0  0  0  0  0  0  0  0
   -4.4114   -3.3401    0.0000 C   0  0  0  0  0  0  0  0  0  0  0  0
    2.0167   -0.4641    0.0000 C   0  0  0  0  0  0  0  0  0  0  0  0
    2.7214   -1.7073    0.0000 C   0  0  0  0  0  0  0  0  0  0  0  0
    2.7214   -0.8766    0.0000 C   0  0  0  0  0  0  0  0  0  0  0  0
  3  2  1  6  0  0  0
  3  1  1  0  0  0  0
  4  2  1  0  0  0  0
  5  1  1  0  0  0  0
  6  8  1  0  0  0  0
  7  6  1  0  0  0  0
  8  5  1  0  0  0  0
  9  7  1  0  0  0  0
 10  3  1  0  0  0  0
 11  1  1  0  0  0  0
 12  2  2  0  0  0  0
  6 13  1  1  0  0  0
 14  4  1  0  0  0  0
 15 29  2  0  0  0  0
 16 19  1  0  0  0  0
 17  9  2  0  0  0  0
 18 11  1  0  0  0  0
 19 23  1  0  0  0  0
 20 16  1  0  0  0  0
 21 18  1  0  0  0  0
 21 22  1  6  0  0  0
 23  9  1  0  0  0  0
  8 24  1  1  0  0  0
 25 13  1  0  0  0  0
 26 22  1  0  0  0  0
 27 26  1  0  0  0  0
 28 36  2  0  0  0  0
 29 37  1  0  0  0  0
 30 14  1  0  0  0  0
 31 14  1  0  0  0  0
 32 14  1  0  0  0  0
 33 16  2  0  0  0  0
 34 20  1  0  0  0  0
 35 20  2  0  0  0  0
 36 27  1  0  0  0  0
 37 27  2  0  0  0  0
 38 25  2  0  0  0  0
 39 25  1  0  0  0  0
 40 41  2  0  0  0  0
 41 33  1  0  0  0  0
 42 39  2  0  0  0  0
 43 38  1  0  0  0  0
 44 42  1  0  0  0  0
 21 10  1  0  0  0  0
 28 15  1  0  0  0  0
 43 44  2  0  0  0  0
 35 40  1  0  0  0  0
M  END
>  <Mol Weight>
600.7907

>  <Formula>
C36H48N4O4

>  <chembl_id>
CHEMBL13075

$$$$

  Mrv0541 06201412482D          

 42 48  0  0  0  0            999 V2000
   -2.0479  -12.0191    0.0000 N   0  0  0  0  0  0  0  0  0  0  0  0
   -1.3364  -12.3919    0.0000 C   0  0  0  0  0  0  0  0  0  0  0  0
   -1.2979  -13.2005    0.0000 N   0  0  0  0  0  0  0  0  0  0  0  0
   -1.9815  -13.6344    0.0000 C   0  0  0  0  0  0  0  0  0  0  0  0
   -2.6972  -13.2616    0.0000 C   0  0  0  0  0  0  0  0  0  0  0  0
   -3.3796  -13.6919    0.0000 C   0  0  0  0  0  0  0  0  0  0  0  0
   -4.0948  -13.3172    0.0000 C   0  0  0  0  0  0  0  0  0  0  0  0
   -4.1281  -12.5142    0.0000 C   0  0  0  0  0  0  0  0  0  0  0  0
   -3.4516  -12.0784    0.0000 C   0  0  0  0  0  0  0  0  0  0  0  0
   -2.7323  -12.4531    0.0000 C   0  0  0  0  0  0  0  0  0  0  0  0
   -1.3714  -11.5833    0.0000 C   0  0  0  0  0  0  0  0  0  0  0  0
   -0.6870  -11.1493    0.0000 C   0  0  0  0  0  0  0  0  0  0  0  0
    0.0322  -11.5240    0.0000 C   0  0  0  0  0  0  0  0  0  0  0  0
    0.0636  -12.3307    0.0000 C   0  0  0  0  0  0  0  0  0  0  0  0
   -0.6170  -12.7665    0.0000 C   0  0  0  0  0  0  0  0  0  0  0  0
   -1.9464  -14.4603    0.0000 O   0  0  0  0  0  0  0  0  0  0  0  0
   -0.5719  -13.5817    0.0000 C   0  0  0  0  0  0  0  0  0  0  0  0
   -0.5379  -14.4087    0.0000 C   0  0  0  0  0  0  0  0  0  0  0  0
    0.1951  -14.7912    0.0000 C   0  0  0  0  0  0  0  0  0  0  0  0
    0.8948  -14.3477    0.0000 C   0  0  0  0  0  0  0  0  0  0  0  0
    0.8569  -13.5177    0.0000 C   0  0  0  0  0  0  0  0  0  0  0  0
    0.1234  -13.1390    0.0000 C   0  0  0  0  0  0  0  0  0  0  0  0
    1.6321  -14.7279    0.0000 C   0  0  0  0  0  0  0  0  0  0  0  0
    1.7536  -15.5454    0.0000 C   0  0  0  0  0  0  0  0  0  0  0  0
    2.5692  -15.6800    0.0000 C   0  0  0  0  0  0  0  0  0  0  0  0
    2.9507  -14.9455    0.0000 N   0  0  0  0  0  0  0  0  0  0  0  0
    2.3725  -14.3581    0.0000 N   0  0  0  0  0  0  0  0  0  0  0  0
    3.6880  -14.5659    0.0000 C   0  0  0  0  0  0  0  0  0  0  0  0
    2.9776  -16.3997    0.0000 C   0  0  0  0  0  0  0  0  0  0  0  0
    4.3780  -15.0182    0.0000 C   0  0  0  0  0  0  0  0  0  0  0  0
    5.1136  -14.6406    0.0000 C   0  0  0  0  0  0  0  0  0  0  0  0
    5.1541  -13.8141    0.0000 C   0  0  0  0  0  0  0  0  0  0  0  0
    4.4572  -13.3624    0.0000 C   0  0  0  0  0  0  0  0  0  0  0  0
    3.7243  -13.7424    0.0000 C   0  0  0  0  0  0  0  0  0  0  0  0
    2.5580  -17.1102    0.0000 C   0  0  0  0  0  0  0  0  0  0  0  0
    2.9656  -17.8254    0.0000 C   0  0  0  0  0  0  0  0  0  0  0  0
    3.7931  -17.8317    0.0000 C   0  0  0  0  0  0  0  0  0  0  0  0
    4.2113  -17.1167    0.0000 C   0  0  0  0  0  0  0  0  0  0  0  0
    3.8012  -16.4003    0.0000 C   0  0  0  0  0  0  0  0  0  0  0  0
    4.2023  -18.5510    0.0000 N   0  0  0  0  0  0  0  0  0  0  0  0
    3.7849  -19.2656    0.0000 C   0  0  0  0  0  0  0  0  0  0  0  0
    5.0289  -18.5557    0.0000 C   0  0  0  0  0  0  0  0  0  0  0  0
  5  6  1  0  0  0  0
 20 21  1  0  0  0  0
  6  7  2  0  0  0  0
 21 22  2  0  0  0  0
 22 17  1  0  0  0  0
  3 17  1  0  0  0  0
 24 23  1  0  0  0  0
  7  8  1  0  0  0  0
  8  9  2  0  0  0  0
  9 10  1  0  0  0  0
  1 10  1  0  0  0  0
  5 10  2  0  0  0  0
 24 25  1  0  0  0  0
 25 26  1  0  0  0  0
 26 27  1  0  0  0  0
 27 23  2  0  0  0  0
 20 23  1  0  0  0  0
 11 12  1  0  0  0  0
 26 28  1  0  0  0  0
 12 13  1  0  0  0  0
 25 29  1  0  0  0  0
 13 14  1  0  0  0  0
 28 30  2  0  0  0  0
 14 15  1  0  0  0  0
 30 31  1  0  0  0  0
  2 11  1  0  0  0  0
 31 32  2  0  0  0  0
  2 15  1  0  0  0  0
 32 33  1  0  0  0  0
 33 34  2  0  0  0  0
 34 28  1  0  0  0  0
  4 16  2  0  0  0  0
 29 35  2  0  0  0  0
  1  2  1  0  0  0  0
 35 36  1  0  0  0  0
  2  3  1  0  0  0  0
 36 37  2  0  0  0  0
 17 18  2  0  0  0  0
 37 38  1  0  0  0  0
  3  4  1  0  0  0  0
 38 39  2  0  0  0  0
 39 29  1  0  0  0  0
 18 19  1  0  0  0  0
 37 40  1  0  0  0  0
  4  5  1  0  0  0  0
 40 41  1  0  0  0  0
 19 20  2  0  0  0  0
 40 42  1  0  0  0  0
M  END
>  <Mol Weight>
555.7119

>  <Formula>
C36H37N5O

>  <chembl_id>
CHEMBL1163458

$$$$

  Mrv0541 06201412482D          

 41 44  0  0  1  0            999 V2000
    1.7417   -3.0766    0.0000 N   0  0  0  0  0  0  0  0  0  0  0  0
    2.4464   -1.8391    0.0000 C   0  0  0  0  0  0  0  0  0  0  0  0
    2.4464   -2.6641    0.0000 C   0  0  2  0  0  0  0  0  0  0  0  0
   -1.8333   -2.6526    0.0000 C   0  0  0  0  0  0  0  0  0  0  0  0
   -1.1114   -3.0766    0.0000 N   0  0  0  0  0  0  0  0  0  0  0  0
    3.2714   -1.8391    0.0000 N   0  0  0  0  0  0  0  0  0  0  0  0
    1.0198   -2.6641    0.0000 C   0  0  0  0  0  0  0  0  0  0  0  0
   -0.4067   -2.6641    0.0000 C   0  0  2  0  0  0  0  0  0  0  0  0
    0.3151   -3.0766    0.0000 C   0  0  2  0  0  0  0  0  0  0  0  0
    3.1683   -3.0766    0.0000 C   0  0  0  0  0  0  0  0  0  0  0  0
    1.7417   -3.9016    0.0000 C   0  0  0  0  0  0  0  0  0  0  0  0
    2.4464   -1.0141    0.0000 O   0  0  0  0  0  0  0  0  0  0  0  0
   -2.5552   -3.0594    0.0000 O   0  0  0  0  0  0  0  0  0  0  0  0
   -1.8333   -1.8276    0.0000 O   0  0  0  0  0  0  0  0  0  0  0  0
   -0.4067   -1.8391    0.0000 C   0  0  0  0  0  0  0  0  0  0  0  0
    4.0964   -1.8391    0.0000 C   0  0  0  0  0  0  0  0  0  0  0  0
    6.7261   -5.1391    0.0000 N   0  0  0  0  0  0  0  0  0  0  0  0
    2.4464   -4.3141    0.0000 C   0  0  0  0  0  0  0  0  0  0  0  0
   -4.5833   -2.3605    0.0000 O   0  0  0  0  0  0  0  0  0  0  0  0
    3.1683   -3.9016    0.0000 C   0  0  1  0  0  0  0  0  0  0  0  0
    3.8730   -4.3141    0.0000 O   0  0  0  0  0  0  0  0  0  0  0  0
    0.2980   -3.9016    0.0000 O   0  0  0  0  0  0  0  0  0  0  0  0
    0.3151   -1.4266    0.0000 C   0  0  0  0  0  0  0  0  0  0  0  0
    4.5948   -3.9016    0.0000 C   0  0  0  0  0  0  0  0  0  0  0  0
   -3.2598   -2.6469    0.0000 C   0  0  2  0  0  0  0  0  0  0  0  0
    5.2995   -4.3141    0.0000 C   0  0  0  0  0  0  0  0  0  0  0  0
   -3.3630   -1.8219    0.0000 C   0  0  0  0  0  0  0  0  0  0  0  0
   -4.1708   -1.6500    0.0000 C   0  0  0  0  0  0  0  0  0  0  0  0
   -4.0161   -2.9792    0.0000 C   0  0  0  0  0  0  0  0  0  0  0  0
    6.7261   -4.3141    0.0000 C   0  0  0  0  0  0  0  0  0  0  0  0
    6.0214   -5.5516    0.0000 C   0  0  0  0  0  0  0  0  0  0  0  0
    4.0964   -2.6641    0.0000 C   0  0  0  0  0  0  0  0  0  0  0  0
    4.9214   -1.8391    0.0000 C   0  0  0  0  0  0  0  0  0  0  0  0
    4.0964   -1.0141    0.0000 C   0  0  0  0  0  0  0  0  0  0  0  0
    5.2995   -5.1391    0.0000 C   0  0  0  0  0  0  0  0  0  0  0  0
    6.0214   -3.9016    0.0000 C   0  0  0  0  0  0  0  0  0  0  0  0
    0.3151   -0.6073    0.0000 C   0  0  0  0  0  0  0  0  0  0  0  0
    1.0370   -1.8448    0.0000 C   0  0  0  0  0  0  0  0  0  0  0  0
    1.7417   -1.4437    0.0000 C   0  0  0  0  0  0  0  0  0  0  0  0
    1.0370   -0.1948    0.0000 C   0  0  0  0  0  0  0  0  0  0  0  0
    1.7417   -0.6073    0.0000 C   0  0  0  0  0  0  0  0  0  0  0  0
  3  2  1  6  0  0  0
  3  1  1  0  0  0  0
  4  5  1  0  0  0  0
  5  8  1  0  0  0  0
  6  2  1  0  0  0  0
  7  1  1  0  0  0  0
  8  9  1  0  0  0  0
  9  7  1  0  0  0  0
 10  3  1  0  0  0  0
 11  1  1  0  0  0  0
 12  2  2  0  0  0  0
 13  4  1  0  0  0  0
 14  4  2  0  0  0  0
  8 15  1  1  0  0  0
 16  6  1  0  0  0  0
 17 30  1  0  0  0  0
 18 11  1  0  0  0  0
 19 29  1  0  0  0  0
 20 18  1  0  0  0  0
 20 21  1  6  0  0  0
  9 22  1  1  0  0  0
 23 15  1  0  0  0  0
 24 21  1  0  0  0  0
 25 13  1  1  0  0  0
 26 24  1  0  0  0  0
 27 25  1  0  0  0  0
 28 27  1  0  0  0  0
 29 25  1  0  0  0  0
 30 36  2  0  0  0  0
 31 35  1  0  0  0  0
 32 16  1  0  0  0  0
 33 16  1  0  0  0  0
 34 16  1  0  0  0  0
 35 26  2  0  0  0  0
 36 26  1  0  0  0  0
 37 23  1  0  0  0  0
 38 23  2  0  0  0  0
 39 38  1  0  0  0  0
 40 37  2  0  0  0  0
 41 39  2  0  0  0  0
 20 10  1  0  0  0  0
 31 17  2  0  0  0  0
 40 41  1  0  0  0  0
 28 19  1  0  0  0  0
M  END
>  <Mol Weight>
568.7043

>  <Formula>
C31H44N4O6

>  <chembl_id>
CHEMBL13205

$$$$

  Mrv0541 06201412482D          

 41 44  0  0  1  0            999 V2000
   10.1961   -9.9999    0.0000 S   0  0  0  0  0  0  0  0  0  0  0  0
    9.4487  -13.7076    0.0000 C   0  0  0  0  0  0  0  0  0  0  0  0
   10.1961   -9.1732    0.0000 N   0  0  0  0  0  0  0  0  0  0  0  0
   10.1878  -10.8266    0.0000 C   0  0  0  0  0  0  0  0  0  0  0  0
    9.4821  -10.4132    0.0000 O   0  0  0  0  0  0  0  0  0  0  0  0
   10.9143  -10.4132    0.0000 O   0  0  0  0  0  0  0  0  0  0  0  0
   10.1627  -13.2942    0.0000 N   0  0  0  0  0  0  0  0  0  0  0  0
    8.7348  -13.2900    0.0000 N   0  0  0  0  0  0  0  0  0  0  0  0
    9.4445  -14.5343    0.0000 O   0  0  0  0  0  0  0  0  0  0  0  0
    9.4696  -11.2274    0.0000 C   0  0  0  0  0  0  0  0  0  0  0  0
   10.8975  -11.2399    0.0000 C   0  0  0  0  0  0  0  0  0  0  0  0
    9.4821   -8.7598    0.0000 C   0  0  0  0  0  0  0  0  0  0  0  0
   10.1752  -12.4675    0.0000 C   0  0  0  0  0  0  0  0  0  0  0  0
    3.0438   -7.5198    0.0000 O   0  0  0  0  0  0  0  0  0  0  0  0
    2.3215   -7.9414    0.0000 C   0  0  0  0  0  0  0  0  0  0  0  0
    4.4760   -7.5198    0.0000 C   0  0  1  0  0  0  0  0  0  0  0  0
    0.8935   -8.7723    0.0000 C   0  0  0  0  0  0  0  0  0  0  0  0
    3.7620   -7.9331    0.0000 C   0  0  0  0  0  0  0  0  0  0  0  0
   10.8892  -12.0624    0.0000 C   0  0  0  0  0  0  0  0  0  0  0  0
    9.4613  -12.0541    0.0000 C   0  0  0  0  0  0  0  0  0  0  0  0
    5.9039   -7.5198    0.0000 N   0  0  0  0  0  0  0  0  0  0  0  0
    8.0458   -7.9331    0.0000 C   0  0  0  0  0  0  0  0  0  0  0  0
    8.3172  -12.5677    0.0000 C   0  0  0  0  0  0  0  0  0  0  0  0
    9.4738   -7.9289    0.0000 C   0  0  0  0  0  0  0  0  0  0  0  0
    8.7598   -9.1732    0.0000 C   0  0  0  0  0  0  0  0  0  0  0  0
    1.6075   -7.5281    0.0000 C   0  0  0  0  0  0  0  0  0  0  0  0
    2.3215   -8.7723    0.0000 C   0  0  0  0  0  0  0  0  0  0  0  0
    0.8935   -7.9414    0.0000 C   0  0  0  0  0  0  0  0  0  0  0  0
    1.6075   -9.1857    0.0000 C   0  0  0  0  0  0  0  0  0  0  0  0
    8.7598   -7.5198    0.0000 C   0  0  0  0  0  0  0  0  0  0  0  0
    8.0458   -8.7598    0.0000 C   0  0  0  0  0  0  0  0  0  0  0  0
    4.4717   -6.6930    0.0000 O   0  0  0  0  0  0  0  0  0  0  0  0
    0.1796   -9.1857    0.0000 O   0  0  0  0  0  0  0  0  0  0  0  0
    5.1899   -7.9331    0.0000 C   0  0  0  0  0  0  0  0  0  0  0  0
    6.6179   -7.9331    0.0000 C   0  0  0  0  0  0  0  0  0  0  0  0
    7.3319   -7.5198    0.0000 C   0  0  0  0  0  0  0  0  0  0  0  0
    8.7306  -11.8412    0.0000 C   0  0  0  0  0  0  0  0  0  0  0  0
    7.4822  -12.5760    0.0000 C   0  0  0  0  0  0  0  0  0  0  0  0
    7.0646  -11.8537    0.0000 C   0  0  0  0  0  0  0  0  0  0  0  0
    8.3089  -11.1272    0.0000 C   0  0  0  0  0  0  0  0  0  0  0  0
    7.4780  -11.1272    0.0000 C   0  0  0  0  0  0  0  0  0  0  0  0
  2  7  1  0  0  0  0
  3  1  1  0  0  0  0
  4  1  1  0  0  0  0
  5  1  2  0  0  0  0
  6  1  2  0  0  0  0
  7 13  1  0  0  0  0
  8  2  1  0  0  0  0
  9  2  2  0  0  0  0
 10  4  2  0  0  0  0
 11  4  1  0  0  0  0
 12  3  1  0  0  0  0
 13 19  1  0  0  0  0
 14 18  1  0  0  0  0
 15 14  1  0  0  0  0
 16 34  1  0  0  0  0
 17 29  1  0  0  0  0
 18 16  1  0  0  0  0
 19 11  2  0  0  0  0
 20 10  1  0  0  0  0
 21 35  1  0  0  0  0
 22 31  2  0  0  0  0
 23  8  1  0  0  0  0
 24 12  1  0  0  0  0
 25 12  2  0  0  0  0
 26 15  2  0  0  0  0
 27 15  1  0  0  0  0
 28 26  1  0  0  0  0
 29 27  2  0  0  0  0
 30 24  2  0  0  0  0
 31 25  1  0  0  0  0
 16 32  1  1  0  0  0
 33 17  1  0  0  0  0
 34 21  1  0  0  0  0
 35 36  1  0  0  0  0
 36 22  1  0  0  0  0
 37 23  1  0  0  0  0
 38 23  1  0  0  0  0
 39 38  1  0  0  0  0
 40 37  1  0  0  0  0
 41 39  1  0  0  0  0
 20 13  2  0  0  0  0
 30 22  1  0  0  0  0
 40 41  1  0  0  0  0
 28 17  2  0  0  0  0
M  END
>  <Mol Weight>
582.711

>  <Formula>
C30H38N4O6S

>  <chembl_id>
CHEMBL13432

$$$$

  Mrv0541 06201412482D          

 39 40  0  0  1  0            999 V2000
    6.0927   -3.8216    0.0000 P   0  0  0  0  0  0  0  0  0  0  0  0
    9.6696   -7.5373    0.0000 C   0  0  0  0  0  0  0  0  0  0  0  0
   10.3837   -7.1241    0.0000 N   0  0  0  0  0  0  0  0  0  0  0  0
    8.9555   -7.1241    0.0000 C   0  0  1  0  0  0  0  0  0  0  0  0
   11.8118   -7.1241    0.0000 C   0  0  0  0  0  0  0  0  0  0  0  0
    8.2349   -7.5373    0.0000 N   0  0  0  0  0  0  0  0  0  0  0  0
   11.0977   -7.5373    0.0000 C   0  0  2  0  0  0  0  0  0  0  0  0
    8.2349   -8.3605    0.0000 C   0  0  0  0  0  0  0  0  0  0  0  0
    6.0927   -4.6447    0.0000 O   0  0  0  0  0  0  0  0  0  0  0  0
   11.8118   -9.6002    0.0000 C   0  0  0  0  0  0  0  0  0  0  0  0
    6.9224   -3.8216    0.0000 O   0  0  0  0  0  0  0  0  0  0  0  0
    9.6696   -8.3605    0.0000 O   0  0  0  0  0  0  0  0  0  0  0  0
    8.9555   -6.2976    0.0000 C   0  0  0  0  0  0  0  0  0  0  0  0
   11.8118   -6.2976    0.0000 O   0  0  0  0  0  0  0  0  0  0  0  0
    8.9555   -8.7704    0.0000 O   0  0  0  0  0  0  0  0  0  0  0  0
   12.5259  -10.0101    0.0000 O   0  0  0  0  0  0  0  0  0  0  0  0
   12.5259   -7.5373    0.0000 N   0  0  0  0  0  0  0  0  0  0  0  0
   11.0977   -8.3605    0.0000 C   0  0  0  0  0  0  0  0  0  0  0  0
    5.2696   -3.8216    0.0000 O   0  0  0  0  0  0  0  0  0  0  0  0
    6.0927   -2.9984    0.0000 O   0  0  0  0  0  0  0  0  0  0  0  0
   13.9573   -8.3605    0.0000 C   0  0  0  0  0  0  0  0  0  0  0  0
   14.6714   -8.7704    0.0000 C   0  0  0  0  0  0  0  0  0  0  0  0
   11.8118   -8.7704    0.0000 C   0  0  0  0  0  0  0  0  0  0  0  0
    6.8068   -5.0613    0.0000 C   0  0  0  0  0  0  0  0  0  0  0  0
    8.2349   -5.8844    0.0000 C   0  0  0  0  0  0  0  0  0  0  0  0
   11.0977  -10.0101    0.0000 O   0  0  0  0  0  0  0  0  0  0  0  0
    8.2349   -5.0613    0.0000 C   0  0  0  0  0  0  0  0  0  0  0  0
    7.5208   -6.2976    0.0000 C   0  0  0  0  0  0  0  0  0  0  0  0
    7.5208   -4.6447    0.0000 C   0  0  0  0  0  0  0  0  0  0  0  0
    6.8068   -5.8844    0.0000 C   0  0  0  0  0  0  0  0  0  0  0  0
   13.2433   -7.1241    0.0000 C   0  0  0  0  0  0  0  0  0  0  0  0
   13.9573   -7.5373    0.0000 C   0  0  0  0  0  0  0  0  0  0  0  0
    7.5208   -8.7704    0.0000 C   0  0  0  0  0  0  0  0  0  0  0  0
   15.3855   -8.3605    0.0000 C   0  0  0  0  0  0  0  0  0  0  0  0
   13.2399   -8.7704    0.0000 C   0  0  0  0  0  0  0  0  0  0  0  0
   14.6714   -9.6002    0.0000 C   0  0  0  0  0  0  0  0  0  0  0  0
   15.3855   -7.5373    0.0000 C   0  0  0  0  0  0  0  0  0  0  0  0
   13.9573  -10.0101    0.0000 C   0  0  0  0  0  0  0  0  0  0  0  0
   13.2399   -9.6002    0.0000 C   0  0  0  0  0  0  0  0  0  0  0  0
  2  4  1  0  0  0  0
  3  2  1  0  0  0  0
  4 13  1  1  0  0  0
  5  7  1  0  0  0  0
  6  4  1  0  0  0  0
  7  3  1  0  0  0  0
  8  6  1  0  0  0  0
  9  1  1  0  0  0  0
 10 23  1  0  0  0  0
 11  1  2  0  0  0  0
 12  2  2  0  0  0  0
 13 25  1  0  0  0  0
 14  5  2  0  0  0  0
 15  8  2  0  0  0  0
 16 10  2  0  0  0  0
 17  5  1  0  0  0  0
  7 18  1  6  0  0  0
 19  1  1  0  0  0  0
 20  1  1  0  0  0  0
 21 32  1  0  0  0  0
 22 21  1  0  0  0  0
 23 18  1  0  0  0  0
 24  9  1  0  0  0  0
 25 28  1  0  0  0  0
 26 10  1  0  0  0  0
 27 29  1  0  0  0  0
 28 30  2  0  0  0  0
 29 24  2  0  0  0  0
 30 24  1  0  0  0  0
 31 17  1  0  0  0  0
 32 31  1  0  0  0  0
 33  8  1  0  0  0  0
 34 22  1  0  0  0  0
 35 21  2  0  0  0  0
 36 22  2  0  0  0  0
 37 34  1  0  0  0  0
 38 39  2  0  0  0  0
 39 35  1  0  0  0  0
 25 27  2  0  0  0  0
 38 36  1  0  0  0  0
M  END
>  <Mol Weight>
563.5366

>  <Formula>
C26H34N3O9P

>  <chembl_id>
CHEMBL13326

$$$$

  Mrv0541 06201412482D          

 41 44  0  0  1  0            999 V2000
    0.8308   -0.5328    0.0000 S   0  0  0  0  0  0  0  0  0  0  0  0
    1.1516   -2.0625    0.0000 C   0  0  2  0  0  0  0  0  0  0  0  0
    0.8250   -1.2605    0.0000 N   0  0  0  0  0  0  0  0  0  0  0  0
    1.9766   -2.0625    0.0000 C   0  0  0  0  0  0  0  0  0  0  0  0
    0.8308    0.2922    0.0000 C   0  0  0  0  0  0  0  0  0  0  0  0
    2.3891   -2.7730    0.0000 N   0  0  0  0  0  0  0  0  0  0  0  0
    0.5558   -2.6355    0.0000 C   0  0  0  0  0  0  0  0  0  0  0  0
    0.1261    0.7161    0.0000 C   0  0  0  0  0  0  0  0  0  0  0  0
   -0.5958    0.3036    0.0000 N   0  0  0  0  0  0  0  0  0  0  0  0
    1.7589   -0.4870    0.0000 O   0  0  0  0  0  0  0  0  0  0  0  0
    0.0058   -0.5214    0.0000 O   0  0  0  0  0  0  0  0  0  0  0  0
    0.7620   -3.4261    0.0000 C   0  0  0  0  0  0  0  0  0  0  0  0
    0.1777   -4.0105    0.0000 C   0  0  0  0  0  0  0  0  0  0  0  0
    2.3891   -1.3464    0.0000 O   0  0  0  0  0  0  0  0  0  0  0  0
   -0.6302   -3.7870    0.0000 C   0  0  0  0  0  0  0  0  0  0  0  0
    1.9766   -3.4891    0.0000 C   0  0  0  0  0  0  0  0  0  0  0  0
    3.2141   -2.7730    0.0000 C   0  0  0  0  0  0  0  0  0  0  0  0
   -0.2349   -2.4120    0.0000 C   0  0  0  0  0  0  0  0  0  0  0  0
    1.5527    1.5297    0.0000 N   0  0  0  0  0  0  0  0  0  0  0  0
   -0.8250   -2.9792    0.0000 C   0  0  0  0  0  0  0  0  0  0  0  0
   -1.3063    0.7161    0.0000 C   0  0  1  0  0  0  0  0  0  0  0  0
    1.5527    0.7047    0.0000 C   0  0  0  0  0  0  0  0  0  0  0  0
    0.1261    1.5297    0.0000 C   0  0  0  0  0  0  0  0  0  0  0  0
   -2.0224    0.3036    0.0000 C   0  0  0  0  0  0  0  0  0  0  0  0
    0.3839   -4.8011    0.0000 O   0  0  0  0  0  0  0  0  0  0  0  0
    3.6151   -3.4948    0.0000 C   0  0  0  0  0  0  0  0  0  0  0  0
    2.3777   -4.1995    0.0000 C   0  0  0  0  0  0  0  0  0  0  0  0
   -1.2145   -4.3656    0.0000 O   0  0  0  0  0  0  0  0  0  0  0  0
   -2.7442    0.7161    0.0000 C   0  0  0  0  0  0  0  0  0  0  0  0
    3.6151   -6.3480    0.0000 F   0  0  0  0  0  0  0  0  0  0  0  0
    3.2027   -4.1995    0.0000 C   0  0  0  0  0  0  0  0  0  0  0  0
    0.8308    1.9422    0.0000 C   0  0  0  0  0  0  0  0  0  0  0  0
   -0.5844    2.1255    0.0000 O   0  0  0  0  0  0  0  0  0  0  0  0
   -1.3063    1.5411    0.0000 C   0  0  0  0  0  0  0  0  0  0  0  0
    3.2027   -5.6261    0.0000 C   0  0  0  0  0  0  0  0  0  0  0  0
    3.6151   -4.9214    0.0000 C   0  0  0  0  0  0  0  0  0  0  0  0
   -3.4547    0.3036    0.0000 C   0  0  0  0  0  0  0  0  0  0  0  0
   -2.7442    1.5411    0.0000 C   0  0  0  0  0  0  0  0  0  0  0  0
   -4.1708    0.7161    0.0000 C   0  0  0  0  0  0  0  0  0  0  0  0
   -3.4547    1.9536    0.0000 C   0  0  0  0  0  0  0  0  0  0  0  0
   -4.1708    1.5411    0.0000 C   0  0  0  0  0  0  0  0  0  0  0  0
  2  3  1  0  0  0  0
  3  1  1  0  0  0  0
  4  2  1  0  0  0  0
  5  1  1  0  0  0  0
  6  4  1  0  0  0  0
  2  7  1  6  0  0  0
  8  5  2  0  0  0  0
  9  8  1  0  0  0  0
 10  1  2  0  0  0  0
 11  1  2  0  0  0  0
 12  7  1  0  0  0  0
 13 12  2  0  0  0  0
 14  4  2  0  0  0  0
 15 20  2  0  0  0  0
 16  6  1  0  0  0  0
 17  6  1  0  0  0  0
 18  7  2  0  0  0  0
 19 22  2  0  0  0  0
 20 18  1  0  0  0  0
 21  9  1  0  0  0  0
 22  5  1  0  0  0  0
 23  8  1  0  0  0  0
 24 21  1  0  0  0  0
 25 13  1  0  0  0  0
 26 17  1  0  0  0  0
 27 16  1  0  0  0  0
 28 15  1  0  0  0  0
 29 24  1  0  0  0  0
 30 35  1  0  0  0  0
 31 26  1  0  0  0  0
 32 19  1  0  0  0  0
 33 34  1  0  0  0  0
 21 34  1  1  0  0  0
 35 36  1  0  0  0  0
 36 31  1  0  0  0  0
 37 29  2  0  0  0  0
 38 29  1  0  0  0  0
 39 37  1  0  0  0  0
 40 38  2  0  0  0  0
 41 40  1  0  0  0  0
 23 32  2  0  0  0  0
 15 13  1  0  0  0  0
 31 27  1  0  0  0  0
 41 39  2  0  0  0  0
M  END
>  <Mol Weight>
586.675

>  <Formula>
C29H35FN4O6S

>  <chembl_id>
CHEMBL13265

$$$$

  Mrv0541 06201412482D          

 40 42  0  0  0  0            999 V2000
    9.3750   -9.1042    0.0000 C   0  0  0  0  0  0  0  0  0  0  0  0
   10.0792   -9.5375    0.0000 N   0  0  0  0  0  0  0  0  0  0  0  0
    6.5167   -3.3667    0.0000 C   0  0  0  0  0  0  0  0  0  0  0  0
    7.2292   -2.9542    0.0000 C   0  0  0  0  0  0  0  0  0  0  0  0
    8.6500   -9.5042    0.0000 O   0  0  0  0  0  0  0  0  0  0  0  0
    5.8000   -2.9542    0.0000 C   0  0  0  0  0  0  0  0  0  0  0  0
    7.9417   -3.3667    0.0000 C   0  0  0  0  0  0  0  0  0  0  0  0
    7.2167   -2.1292    0.0000 C   0  0  0  0  0  0  0  0  0  0  0  0
    2.9417   -4.6167    0.0000 O   0  0  0  0  0  0  0  0  0  0  0  0
    5.0875   -3.3750    0.0000 C   0  0  0  0  0  0  0  0  0  0  0  0
    6.5167   -4.1875    0.0000 S   0  0  0  0  0  0  0  0  0  0  0  0
    3.6542   -4.2042    0.0000 C   0  0  0  0  0  0  0  0  0  0  0  0
    8.6542   -2.1250    0.0000 C   0  0  0  0  0  0  0  0  0  0  0  0
    2.2292   -4.2042    0.0000 C   0  0  0  0  0  0  0  0  0  0  0  0
    8.6542   -2.9500    0.0000 C   0  0  0  0  0  0  0  0  0  0  0  0
    7.9292   -1.7167    0.0000 C   0  0  0  0  0  0  0  0  0  0  0  0
    4.3667   -2.9625    0.0000 C   0  0  0  0  0  0  0  0  0  0  0  0
    5.0875   -4.2042    0.0000 C   0  0  0  0  0  0  0  0  0  0  0  0
    3.6542   -3.3792    0.0000 C   0  0  0  0  0  0  0  0  0  0  0  0
    4.3667   -4.6167    0.0000 C   0  0  0  0  0  0  0  0  0  0  0  0
    1.5125   -4.6167    0.0000 C   0  0  0  0  0  0  0  0  0  0  0  0
    9.3625   -1.7042    0.0000 O   0  0  0  0  0  0  0  0  0  0  0  0
    9.3750   -8.2875    0.0000 C   0  0  0  0  0  0  0  0  0  0  0  0
   10.0542  -10.3625    0.0000 C   0  0  0  0  0  0  0  0  0  0  0  0
   10.8042   -9.1417    0.0000 C   0  0  0  0  0  0  0  0  0  0  0  0
    7.2292   -4.5917    0.0000 C   0  0  0  0  0  0  0  0  0  0  0  0
    0.8000   -4.1917    0.0000 C   0  0  0  0  0  0  0  0  0  0  0  0
    1.5167   -5.4375    0.0000 C   0  0  0  0  0  0  0  0  0  0  0  0
    9.3542   -0.8792    0.0000 C   0  0  0  0  0  0  0  0  0  0  0  0
    8.6625   -7.8792    0.0000 C   0  0  0  0  0  0  0  0  0  0  0  0
   10.7625  -10.7917    0.0000 C   0  0  0  0  0  0  0  0  0  0  0  0
    7.2375   -5.4167    0.0000 C   0  0  0  0  0  0  0  0  0  0  0  0
   10.7417  -11.6167    0.0000 C   0  0  0  0  0  0  0  0  0  0  0  0
    7.9500   -6.6500    0.0000 C   0  0  0  0  0  0  0  0  0  0  0  0
    8.6625   -7.0542    0.0000 C   0  0  0  0  0  0  0  0  0  0  0  0
    7.9500   -5.8292    0.0000 C   0  0  0  0  0  0  0  0  0  0  0  0
   11.4417  -12.0417    0.0000 C   0  0  0  0  0  0  0  0  0  0  0  0
    0.8042   -5.8500    0.0000 C   0  0  0  0  0  0  0  0  0  0  0  0
    0.0875   -4.6125    0.0000 C   0  0  0  0  0  0  0  0  0  0  0  0
    0.0875   -5.4375    0.0000 C   0  0  0  0  0  0  0  0  0  0  0  0
  2  1  1  0  0  0  0
  3 11  1  0  0  0  0
  4  3  1  0  0  0  0
  5  1  2  0  0  0  0
  6  3  1  0  0  0  0
  7  4  2  0  0  0  0
  8  4  1  0  0  0  0
  9 12  1  0  0  0  0
 10  6  1  0  0  0  0
 11 26  1  0  0  0  0
 12 20  1  0  0  0  0
 13 16  1  0  0  0  0
 14  9  1  0  0  0  0
 15  7  1  0  0  0  0
 16  8  2  0  0  0  0
 17 10  2  0  0  0  0
 18 10  1  0  0  0  0
 19 17  1  0  0  0  0
 20 18  2  0  0  0  0
 21 14  1  0  0  0  0
 22 13  1  0  0  0  0
 23  1  1  0  0  0  0
 24  2  1  0  0  0  0
 25  2  1  0  0  0  0
 26 32  1  0  0  0  0
 27 21  2  0  0  0  0
 28 21  1  0  0  0  0
 29 22  1  0  0  0  0
 30 23  1  0  0  0  0
 31 24  1  0  0  0  0
 32 36  1  0  0  0  0
 33 31  1  0  0  0  0
 34 35  1  0  0  0  0
 35 30  1  0  0  0  0
 36 34  1  0  0  0  0
 37 33  1  0  0  0  0
 38 28  2  0  0  0  0
 39 27  1  0  0  0  0
 40 38  1  0  0  0  0
 13 15  2  0  0  0  0
 12 19  2  0  0  0  0
 40 39  2  0  0  0  0
M  END
>  <Mol Weight>
561.818

>  <Formula>
C35H47NO3S

>  <chembl_id>
CHEMBL13367

$$$$

  Mrv0541 06201412482D          

 42 42  0  0  1  0            999 V2000
    5.0928   -3.4086    0.0000 C   0  0  0  0  0  0  0  0  0  0  0  0
    5.8088   -2.9961    0.0000 N   0  0  0  0  0  0  0  0  0  0  0  0
    7.2410   -3.0133    0.0000 C   0  0  0  0  0  0  0  0  0  0  0  0
    7.9399   -6.7254    0.0000 C   0  0  0  0  0  0  0  0  0  0  0  0
    9.3835   -3.4429    0.0000 C   0  0  0  0  0  0  0  0  0  0  0  0
    7.9571   -3.4258    0.0000 N   0  0  0  0  0  0  0  0  0  0  0  0
    6.5192   -3.4258    0.0000 C   0  0  1  0  0  0  0  0  0  0  0  0
    4.3710   -2.9961    0.0000 C   0  0  2  0  0  0  0  0  0  0  0  0
   10.1053   -3.0305    0.0000 N   0  0  0  0  0  0  0  0  0  0  0  0
    8.6503   -7.1551    0.0000 N   0  0  0  0  0  0  0  0  0  0  0  0
    8.6674   -3.0133    0.0000 C   0  0  0  0  0  0  0  0  0  0  0  0
   13.8404   -8.6331    0.0000 C   0  0  0  0  0  0  0  0  0  0  0  0
    5.0870   -4.2335    0.0000 O   0  0  0  0  0  0  0  0  0  0  0  0
   12.2421   -4.2851    0.0000 N   0  0  0  0  0  0  0  0  0  0  0  0
    7.2410   -2.1884    0.0000 O   0  0  0  0  0  0  0  0  0  0  0  0
    9.3835   -4.2679    0.0000 O   0  0  0  0  0  0  0  0  0  0  0  0
    4.3824   -2.1712    0.0000 C   0  0  0  0  0  0  0  0  0  0  0  0
   10.8157   -3.4429    0.0000 C   0  0  0  0  0  0  0  0  0  0  0  0
   14.2528   -7.9113    0.0000 O   0  0  0  0  0  0  0  0  0  0  0  0
   11.5375   -3.0305    0.0000 C   0  0  0  0  0  0  0  0  0  0  0  0
    7.9456   -5.9177    0.0000 N   0  0  0  0  0  0  0  0  0  0  0  0
    7.2181   -7.1379    0.0000 N   0  0  0  0  0  0  0  0  0  0  0  0
   12.2421   -3.4429    0.0000 C   0  0  0  0  0  0  0  0  0  0  0  0
    3.6664   -1.7587    0.0000 C   0  0  0  0  0  0  0  0  0  0  0  0
    3.6606   -3.4086    0.0000 N   0  0  0  0  0  0  0  0  0  0  0  0
    2.2399   -0.9166    0.0000 C   0  0  0  0  0  0  0  0  0  0  0  0
   14.2528   -9.3377    0.0000 O   0  0  0  0  0  0  0  0  0  0  0  0
    3.6664   -0.9166    0.0000 C   0  0  0  0  0  0  0  0  0  0  0  0
    2.9446   -2.1540    0.0000 C   0  0  0  0  0  0  0  0  0  0  0  0
    2.9617   -0.5042    0.0000 C   0  0  0  0  0  0  0  0  0  0  0  0
    2.2399   -1.7415    0.0000 C   0  0  0  0  0  0  0  0  0  0  0  0
    1.5295   -0.5042    0.0000 O   0  0  0  0  0  0  0  0  0  0  0  0
   10.1111   -2.2056    0.0000 C   0  0  0  0  0  0  0  0  0  0  0  0
   12.9467   -4.6975    0.0000 C   0  0  0  0  0  0  0  0  0  0  0  0
   13.0155   -8.6331    0.0000 C   0  0  0  0  0  0  0  0  0  0  0  0
    6.5192   -4.2507    0.0000 C   0  0  0  0  0  0  0  0  0  0  0  0
    7.2238   -5.4881    0.0000 C   0  0  0  0  0  0  0  0  0  0  0  0
   12.9639   -3.0477    0.0000 C   0  0  0  0  0  0  0  0  0  0  0  0
    7.2352   -4.6631    0.0000 C   0  0  0  0  0  0  0  0  0  0  0  0
   10.8271   -1.7931    0.0000 C   0  0  0  0  0  0  0  0  0  0  0  0
   13.6685   -4.2851    0.0000 C   0  0  0  0  0  0  0  0  0  0  0  0
   13.6685   -3.4601    0.0000 C   0  0  0  0  0  0  0  0  0  0  0  0
  2  1  1  0  0  0  0
  3  7  1  0  0  0  0
  4 21  2  0  0  0  0
  5 11  1  0  0  0  0
  6  3  1  0  0  0  0
  7  2  1  0  0  0  0
  8  1  1  0  0  0  0
  9  5  1  0  0  0  0
 10  4  1  0  0  0  0
 11  6  1  0  0  0  0
 13  1  2  0  0  0  0
 14 23  2  0  0  0  0
 15  3  2  0  0  0  0
 16  5  2  0  0  0  0
  8 17  1  1  0  0  0
 18  9  1  0  0  0  0
 19 12  2  0  0  0  0
 20 18  1  0  0  0  0
 21 37  1  0  0  0  0
 22  4  1  0  0  0  0
 23 20  1  0  0  0  0
 24 17  1  0  0  0  0
 25  8  1  0  0  0  0
 26 30  2  0  0  0  0
 27 12  1  0  0  0  0
 28 24  2  0  0  0  0
 29 24  1  0  0  0  0
 30 28  1  0  0  0  0
 31 29  2  0  0  0  0
 32 26  1  0  0  0  0
 33  9  1  0  0  0  0
 34 14  1  0  0  0  0
 35 12  1  0  0  0  0
  7 36  1  1  0  0  0
 37 39  1  0  0  0  0
 38 23  1  0  0  0  0
 39 36  1  0  0  0  0
 40 33  1  0  0  0  0
 41 42  1  0  0  0  0
 42 38  2  0  0  0  0
 31 26  1  0  0  0  0
 34 41  2  0  0  0  0
M  END
>  <Mol Weight>
586.6831

>  <Formula>
C28H42N8O6

>  <chembl_id>
CHEMBL13303

$$$$

  Mrv0541 06201412482D          

 42 46  0  0  0  0            999 V2000
    5.6993   -1.1649    0.0000 C   0  0  0  0  0  0  0  0  0  0  0  0
    1.4029   -1.1774    0.0000 C   0  0  0  0  0  0  0  0  0  0  0  0
    2.1211   -0.7641    0.0000 N   0  0  0  0  0  0  0  0  0  0  0  0
    4.9770   -0.7558    0.0000 N   0  0  0  0  0  0  0  0  0  0  0  0
    6.4133   -0.7516    0.0000 N   0  0  0  0  0  0  0  0  0  0  0  0
    0.6889   -0.7641    0.0000 N   0  0  0  0  0  0  0  0  0  0  0  0
   -0.0334   -1.1774    0.0000 C   0  0  0  0  0  0  0  0  0  0  0  0
    7.1314   -1.1566    0.0000 C   0  0  0  0  0  0  0  0  0  0  0  0
    7.8454   -0.7432    0.0000 C   0  0  0  0  0  0  0  0  0  0  0  0
   -0.7473   -0.7641    0.0000 C   0  0  0  0  0  0  0  0  0  0  0  0
    3.5490   -0.7558    0.0000 C   0  0  0  0  0  0  0  0  0  0  0  0
    1.4029   -2.0041    0.0000 O   0  0  0  0  0  0  0  0  0  0  0  0
    5.7160   -1.8330    0.0000 O   0  0  0  0  0  0  0  0  0  0  0  0
    2.8351   -1.1691    0.0000 C   0  0  0  0  0  0  0  0  0  0  0  0
    4.2630   -1.1691    0.0000 C   0  0  0  0  0  0  0  0  0  0  0  0
    8.5594   -1.1566    0.0000 C   0  0  0  0  0  0  0  0  0  0  0  0
   -1.4613   -1.1774    0.0000 C   0  0  0  0  0  0  0  0  0  0  0  0
    7.8412    0.0835    0.0000 C   0  0  0  0  0  0  0  0  0  0  0  0
   -0.7473    0.0626    0.0000 C   0  0  0  0  0  0  0  0  0  0  0  0
    3.5490   -2.4175    0.0000 C   0  0  0  0  0  0  0  0  0  0  0  0
    4.2630   -2.0041    0.0000 C   0  0  0  0  0  0  0  0  0  0  0  0
    2.8351   -2.0041    0.0000 C   0  0  0  0  0  0  0  0  0  0  0  0
   -2.1753   -0.7558    0.0000 C   0  0  0  0  0  0  0  0  0  0  0  0
   -1.4613   -1.9958    0.0000 C   0  0  0  0  0  0  0  0  0  0  0  0
    8.5594   -1.9833    0.0000 C   0  0  0  0  0  0  0  0  0  0  0  0
    8.5594    0.4968    0.0000 C   0  0  0  0  0  0  0  0  0  0  0  0
    7.1272    0.4885    0.0000 C   0  0  0  0  0  0  0  0  0  0  0  0
    9.2692   -0.7390    0.0000 C   0  0  0  0  0  0  0  0  0  0  0  0
   -0.0208    0.4760    0.0000 C   0  0  0  0  0  0  0  0  0  0  0  0
   -1.4530    0.4718    0.0000 C   0  0  0  0  0  0  0  0  0  0  0  0
    8.5552    1.3235    0.0000 C   0  0  0  0  0  0  0  0  0  0  0  0
    7.1189    1.3110    0.0000 C   0  0  0  0  0  0  0  0  0  0  0  0
   -2.1753   -2.4092    0.0000 C   0  0  0  0  0  0  0  0  0  0  0  0
    9.2734   -2.3924    0.0000 C   0  0  0  0  0  0  0  0  0  0  0  0
    9.9874   -1.1441    0.0000 C   0  0  0  0  0  0  0  0  0  0  0  0
   -0.0208    1.3027    0.0000 C   0  0  0  0  0  0  0  0  0  0  0  0
   -1.4613    1.2985    0.0000 C   0  0  0  0  0  0  0  0  0  0  0  0
   -2.8893   -1.1691    0.0000 C   0  0  0  0  0  0  0  0  0  0  0  0
    9.9957   -1.9708    0.0000 C   0  0  0  0  0  0  0  0  0  0  0  0
   -0.7390    1.7160    0.0000 C   0  0  0  0  0  0  0  0  0  0  0  0
    7.8329    1.7369    0.0000 C   0  0  0  0  0  0  0  0  0  0  0  0
   -2.8893   -1.9958    0.0000 C   0  0  0  0  0  0  0  0  0  0  0  0
  2  3  1  0  0  0  0
  3 14  1  0  0  0  0
  4  1  1  0  0  0  0
  5  1  1  0  0  0  0
  6  2  1  0  0  0  0
  7  6  1  0  0  0  0
  8  5  1  0  0  0  0
  9  8  1  0  0  0  0
 10  7  1  0  0  0  0
 11 15  2  0  0  0  0
 12  2  2  0  0  0  0
 13  1  2  0  0  0  0
 14 11  1  0  0  0  0
 15  4  1  0  0  0  0
 16  9  1  0  0  0  0
 17 10  1  0  0  0  0
 18  9  1  0  0  0  0
 19 10  1  0  0  0  0
 20 21  2  0  0  0  0
 21 15  1  0  0  0  0
 22 20  1  0  0  0  0
 23 17  2  0  0  0  0
 24 17  1  0  0  0  0
 25 16  2  0  0  0  0
 26 18  2  0  0  0  0
 27 18  1  0  0  0  0
 28 16  1  0  0  0  0
 29 19  2  0  0  0  0
 30 19  1  0  0  0  0
 31 26  1  0  0  0  0
 32 27  2  0  0  0  0
 33 24  2  0  0  0  0
 34 25  1  0  0  0  0
 35 28  2  0  0  0  0
 36 29  1  0  0  0  0
 37 30  2  0  0  0  0
 38 23  1  0  0  0  0
 39 35  1  0  0  0  0
 40 37  1  0  0  0  0
 41 32  1  0  0  0  0
 42 33  1  0  0  0  0
 22 14  2  0  0  0  0
 41 31  2  0  0  0  0
 39 34  2  0  0  0  0
 40 36  2  0  0  0  0
 42 38  2  0  0  0  0
M  END
>  <Mol Weight>
554.6808

>  <Formula>
C36H34N4O2

>  <chembl_id>
CHEMBL13347

$$$$

  Mrv0541 06201412482D          

 40 42  0  0  1  0            999 V2000
   10.1961   -9.9999    0.0000 S   0  0  0  0  0  0  0  0  0  0  0  0
   10.1961   -9.1732    0.0000 N   0  0  0  0  0  0  0  0  0  0  0  0
    9.4487  -13.7076    0.0000 C   0  0  0  0  0  0  0  0  0  0  0  0
   10.1878  -10.8266    0.0000 C   0  0  0  0  0  0  0  0  0  0  0  0
    9.4821  -10.4132    0.0000 O   0  0  0  0  0  0  0  0  0  0  0  0
   10.9143  -10.4132    0.0000 O   0  0  0  0  0  0  0  0  0  0  0  0
   10.1627  -13.2942    0.0000 N   0  0  0  0  0  0  0  0  0  0  0  0
    9.4445  -14.5343    0.0000 O   0  0  0  0  0  0  0  0  0  0  0  0
    8.7348  -13.2900    0.0000 N   0  0  0  0  0  0  0  0  0  0  0  0
    9.4696  -11.2274    0.0000 C   0  0  0  0  0  0  0  0  0  0  0  0
   10.8975  -11.2399    0.0000 C   0  0  0  0  0  0  0  0  0  0  0  0
    9.4821   -8.7598    0.0000 C   0  0  0  0  0  0  0  0  0  0  0  0
   10.1752  -12.4675    0.0000 C   0  0  0  0  0  0  0  0  0  0  0  0
    3.0438   -7.5198    0.0000 O   0  0  0  0  0  0  0  0  0  0  0  0
    2.3215   -7.9414    0.0000 C   0  0  0  0  0  0  0  0  0  0  0  0
    4.4760   -7.5198    0.0000 C   0  0  1  0  0  0  0  0  0  0  0  0
    0.8935   -8.7723    0.0000 C   0  0  0  0  0  0  0  0  0  0  0  0
    3.7620   -7.9331    0.0000 C   0  0  0  0  0  0  0  0  0  0  0  0
   10.8892  -12.0624    0.0000 C   0  0  0  0  0  0  0  0  0  0  0  0
    9.4613  -12.0541    0.0000 C   0  0  0  0  0  0  0  0  0  0  0  0
    5.9039   -7.5198    0.0000 N   0  0  0  0  0  0  0  0  0  0  0  0
    8.0458   -7.9331    0.0000 C   0  0  0  0  0  0  0  0  0  0  0  0
    8.7598   -9.1732    0.0000 C   0  0  0  0  0  0  0  0  0  0  0  0
    9.4738   -7.9289    0.0000 C   0  0  0  0  0  0  0  0  0  0  0  0
    2.3215   -8.7723    0.0000 C   0  0  0  0  0  0  0  0  0  0  0  0
    1.6075   -7.5281    0.0000 C   0  0  0  0  0  0  0  0  0  0  0  0
    1.6075   -9.1857    0.0000 C   0  0  0  0  0  0  0  0  0  0  0  0
    0.8935   -7.9414    0.0000 C   0  0  0  0  0  0  0  0  0  0  0  0
    8.0458   -8.7598    0.0000 C   0  0  0  0  0  0  0  0  0  0  0  0
    8.7598   -7.5198    0.0000 C   0  0  0  0  0  0  0  0  0  0  0  0
    4.4717   -6.6930    0.0000 O   0  0  0  0  0  0  0  0  0  0  0  0
    0.1796   -9.1857    0.0000 O   0  0  0  0  0  0  0  0  0  0  0  0
    5.1899   -7.9331    0.0000 C   0  0  0  0  0  0  0  0  0  0  0  0
    8.7431  -12.4633    0.0000 C   0  0  0  0  0  0  0  0  0  0  0  0
    6.6179   -7.9331    0.0000 C   0  0  0  0  0  0  0  0  0  0  0  0
    7.3319   -7.5198    0.0000 C   0  0  0  0  0  0  0  0  0  0  0  0
    8.0291  -12.0416    0.0000 C   0  0  0  0  0  0  0  0  0  0  0  0
    7.3193  -10.7973    0.0000 C   0  0  0  0  0  0  0  0  0  0  0  0
    8.0333  -11.2149    0.0000 C   0  0  0  0  0  0  0  0  0  0  0  0
    7.3277   -9.9706    0.0000 C   0  0  0  0  0  0  0  0  0  0  0  0
  2  1  1  0  0  0  0
  3  7  1  0  0  0  0
  4  1  1  0  0  0  0
  5  1  2  0  0  0  0
  6  1  2  0  0  0  0
  7 13  1  0  0  0  0
  8  3  2  0  0  0  0
  9  3  1  0  0  0  0
 10  4  2  0  0  0  0
 11  4  1  0  0  0  0
 12  2  1  0  0  0  0
 13 19  1  0  0  0  0
 14 18  1  0  0  0  0
 15 14  1  0  0  0  0
 16 33  1  0  0  0  0
 17 28  2  0  0  0  0
 18 16  1  0  0  0  0
 19 11  2  0  0  0  0
 20 10  1  0  0  0  0
 21 35  1  0  0  0  0
 22 30  1  0  0  0  0
 23 12  2  0  0  0  0
 24 12  1  0  0  0  0
 25 15  1  0  0  0  0
 26 15  2  0  0  0  0
 27 25  2  0  0  0  0
 28 26  1  0  0  0  0
 29 23  1  0  0  0  0
 30 24  2  0  0  0  0
 16 31  1  1  0  0  0
 32 17  1  0  0  0  0
 33 21  1  0  0  0  0
 34  9  1  0  0  0  0
 35 36  1  0  0  0  0
 36 22  1  0  0  0  0
 37 34  1  0  0  0  0
 38 39  1  0  0  0  0
 39 37  1  0  0  0  0
 40 38  1  0  0  0  0
 20 13  2  0  0  0  0
 22 29  2  0  0  0  0
 27 17  1  0  0  0  0
M  END
>  <Mol Weight>
570.7

>  <Formula>
C29H38N4O6S

>  <chembl_id>
CHEMBL13459

$$$$

  Mrv0541 06201412482D          

 41 43  0  0  1  0            999 V2000
   10.1961   -9.9999    0.0000 S   0  0  0  0  0  0  0  0  0  0  0  0
   10.1961   -9.1732    0.0000 N   0  0  0  0  0  0  0  0  0  0  0  0
    9.4487  -13.7076    0.0000 C   0  0  0  0  0  0  0  0  0  0  0  0
   10.1878  -10.8266    0.0000 C   0  0  0  0  0  0  0  0  0  0  0  0
    9.4821  -10.4132    0.0000 O   0  0  0  0  0  0  0  0  0  0  0  0
   10.9143  -10.4132    0.0000 O   0  0  0  0  0  0  0  0  0  0  0  0
   10.1627  -13.2942    0.0000 N   0  0  0  0  0  0  0  0  0  0  0  0
    9.4445  -14.5343    0.0000 O   0  0  0  0  0  0  0  0  0  0  0  0
   10.8975  -11.2399    0.0000 C   0  0  0  0  0  0  0  0  0  0  0  0
    9.4696  -11.2274    0.0000 C   0  0  0  0  0  0  0  0  0  0  0  0
    9.4821   -8.7598    0.0000 C   0  0  0  0  0  0  0  0  0  0  0  0
   10.1752  -12.4675    0.0000 C   0  0  0  0  0  0  0  0  0  0  0  0
    3.0438   -7.5198    0.0000 O   0  0  0  0  0  0  0  0  0  0  0  0
    2.3215   -7.9414    0.0000 C   0  0  0  0  0  0  0  0  0  0  0  0
    8.7348  -13.2900    0.0000 O   0  0  0  0  0  0  0  0  0  0  0  0
    4.4760   -7.5198    0.0000 C   0  0  1  0  0  0  0  0  0  0  0  0
    0.8935   -8.7723    0.0000 C   0  0  0  0  0  0  0  0  0  0  0  0
    3.7620   -7.9331    0.0000 C   0  0  0  0  0  0  0  0  0  0  0  0
   10.8892  -12.0624    0.0000 C   0  0  0  0  0  0  0  0  0  0  0  0
    9.4613  -12.0541    0.0000 C   0  0  0  0  0  0  0  0  0  0  0  0
    5.9039   -7.5198    0.0000 N   0  0  0  0  0  0  0  0  0  0  0  0
    8.0458   -7.9331    0.0000 C   0  0  0  0  0  0  0  0  0  0  0  0
    8.7598   -9.1732    0.0000 C   0  0  0  0  0  0  0  0  0  0  0  0
    9.4738   -7.9289    0.0000 C   0  0  0  0  0  0  0  0  0  0  0  0
    2.3215   -8.7723    0.0000 C   0  0  0  0  0  0  0  0  0  0  0  0
    1.6075   -7.5281    0.0000 C   0  0  0  0  0  0  0  0  0  0  0  0
    1.6075   -9.1857    0.0000 C   0  0  0  0  0  0  0  0  0  0  0  0
    0.8935   -7.9414    0.0000 C   0  0  0  0  0  0  0  0  0  0  0  0
    8.0458   -8.7598    0.0000 C   0  0  0  0  0  0  0  0  0  0  0  0
    8.7598   -7.5198    0.0000 C   0  0  0  0  0  0  0  0  0  0  0  0
    4.4717   -6.6930    0.0000 O   0  0  0  0  0  0  0  0  0  0  0  0
    0.1796   -9.1857    0.0000 O   0  0  0  0  0  0  0  0  0  0  0  0
    5.1899   -7.9331    0.0000 C   0  0  0  0  0  0  0  0  0  0  0  0
    6.6179   -7.9331    0.0000 C   0  0  0  0  0  0  0  0  0  0  0  0
    7.3319   -7.5198    0.0000 C   0  0  0  0  0  0  0  0  0  0  0  0
    8.0166  -13.6950    0.0000 C   0  0  0  0  0  0  0  0  0  0  0  0
    7.3026  -13.2775    0.0000 C   0  0  0  0  0  0  0  0  0  0  0  0
    5.1524  -13.6700    0.0000 C   0  0  0  0  0  0  0  0  0  0  0  0
    5.8663  -13.2691    0.0000 C   0  0  0  0  0  0  0  0  0  0  0  0
    6.5803  -13.6825    0.0000 C   0  0  0  0  0  0  0  0  0  0  0  0
    4.4384  -13.2566    0.0000 C   0  0  0  0  0  0  0  0  0  0  0  0
  2  1  1  0  0  0  0
  3  7  1  0  0  0  0
  4  1  1  0  0  0  0
  5  1  2  0  0  0  0
  6  1  2  0  0  0  0
  7 12  1  0  0  0  0
  8  3  2  0  0  0  0
  9  4  1  0  0  0  0
 10  4  2  0  0  0  0
 11  2  1  0  0  0  0
 12 20  2  0  0  0  0
 13 18  1  0  0  0  0
 14 13  1  0  0  0  0
 15  3  1  0  0  0  0
 16 33  1  0  0  0  0
 17 28  2  0  0  0  0
 18 16  1  0  0  0  0
 19  9  2  0  0  0  0
 20 10  1  0  0  0  0
 21 34  1  0  0  0  0
 22 30  1  0  0  0  0
 23 11  2  0  0  0  0
 24 11  1  0  0  0  0
 25 14  1  0  0  0  0
 26 14  2  0  0  0  0
 27 25  2  0  0  0  0
 28 26  1  0  0  0  0
 29 23  1  0  0  0  0
 30 24  2  0  0  0  0
 16 31  1  1  0  0  0
 32 17  1  0  0  0  0
 33 21  1  0  0  0  0
 34 35  1  0  0  0  0
 35 22  1  0  0  0  0
 36 15  1  0  0  0  0
 37 36  1  0  0  0  0
 38 39  1  0  0  0  0
 39 40  1  0  0  0  0
 40 37  1  0  0  0  0
 41 38  1  0  0  0  0
 19 12  1  0  0  0  0
 22 29  2  0  0  0  0
 27 17  1  0  0  0  0
M  END
>  <Mol Weight>
585.712

>  <Formula>
C30H39N3O7S

>  <chembl_id>
CHEMBL12939

$$$$

  Mrv0541 06201412482D          

 40 41  0  0  1  0            999 V2000
    5.9142   -4.1687    0.0000 P   0  0  0  0  0  0  0  0  0  0  0  0
    9.4845   -7.8845    0.0000 C   0  0  0  0  0  0  0  0  0  0  0  0
   11.6267   -7.4712    0.0000 C   0  0  0  0  0  0  0  0  0  0  0  0
   10.1986   -7.4712    0.0000 N   0  0  0  0  0  0  0  0  0  0  0  0
    8.7704   -7.4712    0.0000 C   0  0  1  0  0  0  0  0  0  0  0  0
   10.9126   -7.8845    0.0000 C   0  0  1  0  0  0  0  0  0  0  0  0
    8.0564   -7.8845    0.0000 N   0  0  0  0  0  0  0  0  0  0  0  0
    8.0564   -8.7109    0.0000 C   0  0  0  0  0  0  0  0  0  0  0  0
   12.3408   -7.8845    0.0000 N   0  0  0  0  0  0  0  0  0  0  0  0
    5.9142   -4.9984    0.0000 O   0  0  0  0  0  0  0  0  0  0  0  0
    6.7373   -4.1687    0.0000 O   0  0  0  0  0  0  0  0  0  0  0  0
   12.4697  -10.3374    0.0000 C   0  0  0  0  0  0  0  0  0  0  0  0
   11.6267   -6.6481    0.0000 O   0  0  0  0  0  0  0  0  0  0  0  0
    9.4845   -8.7109    0.0000 O   0  0  0  0  0  0  0  0  0  0  0  0
    8.7704   -6.6481    0.0000 C   0  0  0  0  0  0  0  0  0  0  0  0
    8.7704   -9.1241    0.0000 O   0  0  0  0  0  0  0  0  0  0  0  0
   11.7325   -9.9671    0.0000 O   0  0  0  0  0  0  0  0  0  0  0  0
    5.0877   -4.1687    0.0000 O   0  0  0  0  0  0  0  0  0  0  0  0
    5.9142   -3.3455    0.0000 O   0  0  0  0  0  0  0  0  0  0  0  0
    6.6283   -5.4084    0.0000 C   0  0  0  0  0  0  0  0  0  0  0  0
    8.0564   -6.2316    0.0000 C   0  0  0  0  0  0  0  0  0  0  0  0
   12.5193  -11.1606    0.0000 O   0  0  0  0  0  0  0  0  0  0  0  0
    8.0564   -5.4084    0.0000 C   0  0  0  0  0  0  0  0  0  0  0  0
    7.3423   -6.6481    0.0000 C   0  0  0  0  0  0  0  0  0  0  0  0
    7.3423   -4.9984    0.0000 C   0  0  0  0  0  0  0  0  0  0  0  0
    6.6283   -6.2316    0.0000 C   0  0  0  0  0  0  0  0  0  0  0  0
   14.4895   -9.1241    0.0000 C   0  0  0  0  0  0  0  0  0  0  0  0
   12.3408   -8.7109    0.0000 C   0  0  0  0  0  0  0  0  0  0  0  0
   13.0548   -7.4712    0.0000 C   0  0  0  0  0  0  0  0  0  0  0  0
   13.0548   -9.9473    0.0000 C   0  0  0  0  0  0  0  0  0  0  0  0
   13.0548   -9.1241    0.0000 C   0  0  0  0  0  0  0  0  0  0  0  0
   13.7755   -7.8845    0.0000 C   0  0  0  0  0  0  0  0  0  0  0  0
   10.9126   -8.7109    0.0000 C   0  0  0  0  0  0  0  0  0  0  0  0
    7.3423   -9.1241    0.0000 C   0  0  0  0  0  0  0  0  0  0  0  0
   13.7755   -8.7109    0.0000 C   0  0  0  0  0  0  0  0  0  0  0  0
   14.4895   -9.9473    0.0000 C   0  0  0  0  0  0  0  0  0  0  0  0
   15.2036   -8.7109    0.0000 C   0  0  0  0  0  0  0  0  0  0  0  0
   15.2036  -10.3573    0.0000 C   0  0  0  0  0  0  0  0  0  0  0  0
   15.9177   -9.1241    0.0000 C   0  0  0  0  0  0  0  0  0  0  0  0
   15.9177   -9.9473    0.0000 C   0  0  0  0  0  0  0  0  0  0  0  0
  2  5  1  0  0  0  0
  3  6  1  0  0  0  0
  4  2  1  0  0  0  0
  5 15  1  1  0  0  0
  6  4  1  0  0  0  0
  7  5  1  0  0  0  0
  8  7  1  0  0  0  0
  9  3  1  0  0  0  0
 10  1  1  0  0  0  0
 11  1  2  0  0  0  0
 12 30  1  0  0  0  0
 13  3  2  0  0  0  0
 14  2  2  0  0  0  0
 15 21  1  0  0  0  0
 16  8  2  0  0  0  0
 17 12  2  0  0  0  0
 18  1  1  0  0  0  0
 19  1  1  0  0  0  0
 20 10  1  0  0  0  0
 21 24  1  0  0  0  0
 22 12  1  0  0  0  0
 23 25  1  0  0  0  0
 24 26  2  0  0  0  0
 25 20  2  0  0  0  0
 26 20  1  0  0  0  0
 27 35  1  0  0  0  0
 28  9  1  0  0  0  0
 29  9  1  0  0  0  0
 30 31  1  0  0  0  0
 31 28  1  0  0  0  0
 32 29  1  0  0  0  0
  6 33  1  6  0  0  0
 34  8  1  0  0  0  0
 35 32  1  0  0  0  0
 36 27  2  0  0  0  0
 37 27  1  0  0  0  0
 38 36  1  0  0  0  0
 39 37  2  0  0  0  0
 40 39  1  0  0  0  0
 21 23  2  0  0  0  0
 40 38  2  0  0  0  0
M  END
>  <Mol Weight>
577.5632

>  <Formula>
C27H36N3O9P

>  <chembl_id>
CHEMBL13243

$$$$

  Mrv0541 06201412482D          

 42 47  0  0  1  0            999 V2000
    4.6329   -5.2041    0.0000 C   0  0  2  0  0  0  0  0  0  0  0  0
    5.4585   -6.0214    0.0000 N   0  0  0  0  0  0  0  0  0  0  0  0
    4.6329   -6.0298    0.0000 C   0  0  0  0  0  0  0  0  0  0  0  0
    5.4585   -5.2041    0.0000 C   0  0  0  0  0  0  0  0  0  0  0  0
    6.1591   -6.4343    0.0000 C   0  0  0  0  0  0  0  0  0  0  0  0
    3.2568   -4.8330    0.0000 C   0  0  0  0  0  0  0  0  0  0  0  0
    4.0532   -4.6203    0.0000 N   0  0  0  0  0  0  0  0  0  0  0  0
    6.1591   -7.2599    0.0000 C   0  0  0  0  0  0  0  0  0  0  0  0
    2.6188   -4.3201    0.0000 N   0  0  0  0  0  0  0  0  0  0  0  0
    6.1716   -4.7955    0.0000 S   0  0  0  0  0  0  0  0  0  0  0  0
    6.8804   -6.0340    0.0000 C   0  0  0  0  0  0  0  0  0  0  0  0
    2.9648   -5.6086    0.0000 N   0  0  0  0  0  0  0  0  0  0  0  0
    6.8721   -7.6811    0.0000 O   0  0  0  0  0  0  0  0  0  0  0  0
    6.8679   -8.5067    0.0000 C   0  0  0  0  0  0  0  0  0  0  0  0
    1.9307   -4.7705    0.0000 C   0  0  0  0  0  0  0  0  0  0  0  0
    2.1309   -5.5669    0.0000 C   0  0  0  0  0  0  0  0  0  0  0  0
    6.8846   -5.2083    0.0000 C   0  0  0  0  0  0  0  0  0  0  0  0
    4.0574   -6.6177    0.0000 O   0  0  0  0  0  0  0  0  0  0  0  0
    5.2208   -4.6161    0.0000 O   0  0  0  0  0  0  0  0  0  0  0  0
    5.4418   -7.6727    0.0000 O   0  0  0  0  0  0  0  0  0  0  0  0
    7.5852   -6.4468    0.0000 C   0  0  0  0  0  0  0  0  0  0  0  0
    9.0196   -6.4593    0.0000 C   0  0  0  0  0  0  0  0  0  0  0  0
    8.3107   -6.0465    0.0000 O   0  0  0  0  0  0  0  0  0  0  0  0
    7.5727   -8.9237    0.0000 C   0  0  0  0  0  0  0  0  0  0  0  0
    6.1465   -8.9112    0.0000 C   0  0  0  0  0  0  0  0  0  0  0  0
    9.0113   -7.2849    0.0000 O   0  0  0  0  0  0  0  0  0  0  0  0
    1.1384   -4.5536    0.0000 C   0  0  0  0  0  0  0  0  0  0  0  0
    1.5554   -6.1465    0.0000 C   0  0  0  0  0  0  0  0  0  0  0  0
    9.7369   -6.0548    0.0000 C   0  0  0  0  0  0  0  0  0  0  0  0
    8.2857   -8.5192    0.0000 C   0  0  0  0  0  0  0  0  0  0  0  0
    5.4335   -8.4984    0.0000 C   0  0  0  0  0  0  0  0  0  0  0  0
    6.1465   -9.7369    0.0000 C   0  0  0  0  0  0  0  0  0  0  0  0
    7.5685   -9.7494    0.0000 C   0  0  0  0  0  0  0  0  0  0  0  0
    4.9956   -3.8197    0.0000 C   0  0  0  0  0  0  0  0  0  0  0  0
    0.7673   -5.9339    0.0000 C   0  0  0  0  0  0  0  0  0  0  0  0
    0.5546   -5.1332    0.0000 C   0  0  0  0  0  0  0  0  0  0  0  0
    5.4335  -10.1497    0.0000 C   0  0  0  0  0  0  0  0  0  0  0  0
    8.2815  -10.1705    0.0000 C   0  0  0  0  0  0  0  0  0  0  0  0
    8.9988   -8.9320    0.0000 C   0  0  0  0  0  0  0  0  0  0  0  0
    4.7204   -8.8987    0.0000 C   0  0  0  0  0  0  0  0  0  0  0  0
    8.9988   -9.7619    0.0000 C   0  0  0  0  0  0  0  0  0  0  0  0
    4.7162   -9.7327    0.0000 C   0  0  0  0  0  0  0  0  0  0  0  0
  2  4  1  0  0  0  0
  3  1  1  0  0  0  0
  4  1  1  0  0  0  0
  5  2  1  0  0  0  0
  6  7  1  0  0  0  0
  1  7  1  1  0  0  0
  8  5  1  0  0  0  0
  9  6  2  0  0  0  0
 10  4  1  0  0  0  0
 11 17  1  0  0  0  0
 12  6  1  0  0  0  0
 13  8  1  0  0  0  0
 14 13  1  0  0  0  0
 15  9  1  0  0  0  0
 16 12  1  0  0  0  0
 17 10  1  0  0  0  0
 18  3  2  0  0  0  0
  1 19  1  6  0  0  0
 20  8  2  0  0  0  0
 21 11  1  0  0  0  0
 22 23  1  0  0  0  0
 23 21  1  0  0  0  0
 24 14  1  0  0  0  0
 25 14  1  0  0  0  0
 26 22  2  0  0  0  0
 27 15  1  0  0  0  0
 28 16  1  0  0  0  0
 29 22  1  0  0  0  0
 30 24  1  0  0  0  0
 31 25  2  0  0  0  0
 32 25  1  0  0  0  0
 33 24  2  0  0  0  0
 34 19  1  0  0  0  0
 35 28  2  0  0  0  0
 36 27  2  0  0  0  0
 37 32  2  0  0  0  0
 38 33  1  0  0  0  0
 39 30  2  0  0  0  0
 40 31  1  0  0  0  0
 41 38  2  0  0  0  0
 42 37  1  0  0  0  0
  2  3  1  0  0  0  0
 15 16  2  0  0  0  0
 11  5  2  0  0  0  0
 35 36  1  0  0  0  0
 42 40  2  0  0  0  0
 41 39  1  0  0  0  0
M  END
>  <Mol Weight>
584.642

>  <Formula>
C31H28N4O6S

>  <chembl_id>
CHEMBL13372

$$$$

  Mrv0541 06201412482D          

 37 36  0  0  0  0            999 V2000
    5.9287   -7.7481    0.0000 P   0  0  0  0  0  0  0  0  0  0  0  0
    5.9287   -8.7353    0.0000 O   0  5  0  0  0  0  0  0  0  0  0  0
    4.9588   -7.7366    0.0000 O   0  0  0  0  0  0  0  0  0  0  0  0
    3.5355   -4.7349    0.0000 C   0  0  0  0  0  0  0  0  0  0  0  0
    5.9287   -6.6691    0.0000 O   0  0  0  0  0  0  0  0  0  0  0  0
    8.6319   -9.3207    0.0000 N   0  3  0  0  0  0  0  0  0  0  0  0
    3.5355   -5.5614    0.0000 O   0  0  0  0  0  0  0  0  0  0  0  0
    6.8241   -7.7481    0.0000 O   0  0  0  0  0  0  0  0  0  0  0  0
    4.2414   -7.3234    0.0000 C   0  0  0  0  0  0  0  0  0  0  0  0
    2.8237   -4.3217    0.0000 O   0  0  0  0  0  0  0  0  0  0  0  0
    4.2528   -5.9804    0.0000 C   0  0  0  0  0  0  0  0  0  0  0  0
    7.2832   -8.5286    0.0000 C   0  0  0  0  0  0  0  0  0  0  0  0
    8.1843   -8.5401    0.0000 C   0  0  0  0  0  0  0  0  0  0  0  0
    9.5445   -9.3207    0.0000 C   0  0  0  0  0  0  0  0  0  0  0  0
    8.1843  -10.1069    0.0000 C   0  0  0  0  0  0  0  0  0  0  0  0
    9.2690   -9.9577    0.0000 C   0  0  0  0  0  0  0  0  0  0  0  0
    5.6819   -5.9804    0.0000 O   0  0  0  0  0  0  0  0  0  0  0  0
    4.2586   -4.3275    0.0000 C   0  0  0  0  0  0  0  0  0  0  0  0
    4.9645   -5.5672    0.0000 C   0  0  0  0  0  0  0  0  0  0  0  0
    6.3936   -5.5614    0.0000 C   0  0  0  0  0  0  0  0  0  0  0  0
    7.0996   -5.9632    0.0000 C   0  0  0  0  0  0  0  0  0  0  0  0
   17.7746   -5.5155    0.0000 C   0  0  0  0  0  0  0  0  0  0  0  0
   17.0687   -5.9287    0.0000 C   0  0  0  0  0  0  0  0  0  0  0  0
   11.3696   -5.9460    0.0000 C   0  0  0  0  0  0  0  0  0  0  0  0
   12.0870   -5.5327    0.0000 C   0  0  0  0  0  0  0  0  0  0  0  0
   12.7987   -5.9460    0.0000 C   0  0  0  0  0  0  0  0  0  0  0  0
   13.5046   -5.5327    0.0000 C   0  0  0  0  0  0  0  0  0  0  0  0
   14.2220   -5.9402    0.0000 C   0  0  0  0  0  0  0  0  0  0  0  0
   14.9337   -5.5155    0.0000 C   0  0  0  0  0  0  0  0  0  0  0  0
   15.6396   -5.9287    0.0000 C   0  0  0  0  0  0  0  0  0  0  0  0
   16.3570   -5.5155    0.0000 C   0  0  0  0  0  0  0  0  0  0  0  0
    7.8169   -5.5499    0.0000 C   0  0  0  0  0  0  0  0  0  0  0  0
    8.5286   -5.9632    0.0000 C   0  0  0  0  0  0  0  0  0  0  0  0
    9.2346   -5.5499    0.0000 C   0  0  0  0  0  0  0  0  0  0  0  0
    9.9519   -5.9460    0.0000 C   0  0  0  0  0  0  0  0  0  0  0  0
   10.6637   -5.5442    0.0000 C   0  0  0  0  0  0  0  0  0  0  0  0
   18.4920   -5.9230    0.0000 C   0  0  0  0  0  0  0  0  0  0  0  0
  2  1  1  0  0  0  0
  3  1  1  0  0  0  0
  4  7  1  0  0  0  0
  5  1  2  0  0  0  0
  6 13  1  0  0  0  0
  7 11  1  0  0  0  0
  8  1  1  0  0  0  0
  9  3  1  0  0  0  0
 10  4  2  0  0  0  0
 11  9  1  0  0  0  0
 12  8  1  0  0  0  0
 13 12  1  0  0  0  0
 14  6  1  0  0  0  0
 15  6  1  0  0  0  0
 16  6  1  0  0  0  0
 17 19  1  0  0  0  0
 18  4  1  0  0  0  0
 19 11  1  0  0  0  0
 20 17  1  0  0  0  0
 21 20  1  0  0  0  0
 22 23  1  0  0  0  0
 23 31  1  0  0  0  0
 24 36  1  0  0  0  0
 25 24  1  0  0  0  0
 26 25  1  0  0  0  0
 27 26  1  0  0  0  0
 28 27  1  0  0  0  0
 29 28  1  0  0  0  0
 30 29  1  0  0  0  0
 31 30  1  0  0  0  0
 32 21  1  0  0  0  0
 33 32  1  0  0  0  0
 34 33  1  0  0  0  0
 35 34  1  0  0  0  0
 36 35  1  0  0  0  0
 37 22  1  0  0  0  0
M  CHG  2   2  -1   6   1
M  END
>  <Mol Weight>
551.7364

>  <Formula>
C28H58NO7P

>  <chembl_id>
CHEMBL12852

$$$$

  Mrv0541 06201412482D          

 40 43  0  0  1  0            999 V2000
    0.8308   -0.5328    0.0000 S   0  0  0  0  0  0  0  0  0  0  0  0
    0.8250   -1.2605    0.0000 N   0  0  0  0  0  0  0  0  0  0  0  0
    1.1516   -2.0625    0.0000 C   0  0  2  0  0  0  0  0  0  0  0  0
    1.9766   -2.0625    0.0000 C   0  0  0  0  0  0  0  0  0  0  0  0
    0.8308    0.2922    0.0000 C   0  0  0  0  0  0  0  0  0  0  0  0
    2.3891   -2.7730    0.0000 N   0  0  0  0  0  0  0  0  0  0  0  0
    0.1261    0.7161    0.0000 C   0  0  0  0  0  0  0  0  0  0  0  0
   -0.5958    0.3036    0.0000 N   0  0  0  0  0  0  0  0  0  0  0  0
    0.0058   -0.5214    0.0000 O   0  0  0  0  0  0  0  0  0  0  0  0
    1.7589   -0.4870    0.0000 O   0  0  0  0  0  0  0  0  0  0  0  0
    0.5558   -2.6355    0.0000 C   0  0  0  0  0  0  0  0  0  0  0  0
    2.3891   -1.3464    0.0000 O   0  0  0  0  0  0  0  0  0  0  0  0
    3.2141   -2.7730    0.0000 C   0  0  0  0  0  0  0  0  0  0  0  0
    1.9766   -3.4891    0.0000 C   0  0  0  0  0  0  0  0  0  0  0  0
    1.5527    1.5297    0.0000 N   0  0  0  0  0  0  0  0  0  0  0  0
   -0.2349   -2.4120    0.0000 C   0  0  0  0  0  0  0  0  0  0  0  0
    0.7620   -3.4261    0.0000 C   0  0  0  0  0  0  0  0  0  0  0  0
   -1.3063    0.7161    0.0000 C   0  0  1  0  0  0  0  0  0  0  0  0
    1.5527    0.7047    0.0000 C   0  0  0  0  0  0  0  0  0  0  0  0
    0.1261    1.5297    0.0000 C   0  0  0  0  0  0  0  0  0  0  0  0
   -2.0224    0.3036    0.0000 C   0  0  0  0  0  0  0  0  0  0  0  0
   -0.6302   -3.7870    0.0000 C   0  0  0  0  0  0  0  0  0  0  0  0
    0.1777   -4.0105    0.0000 C   0  0  0  0  0  0  0  0  0  0  0  0
   -0.8250   -2.9792    0.0000 C   0  0  0  0  0  0  0  0  0  0  0  0
    2.3777   -4.1995    0.0000 C   0  0  0  0  0  0  0  0  0  0  0  0
    3.6151   -3.4948    0.0000 C   0  0  0  0  0  0  0  0  0  0  0  0
   -2.7442    0.7161    0.0000 C   0  0  0  0  0  0  0  0  0  0  0  0
    3.6151   -6.3480    0.0000 F   0  0  0  0  0  0  0  0  0  0  0  0
   -1.2145   -4.3656    0.0000 O   0  0  0  0  0  0  0  0  0  0  0  0
    3.2027   -4.1995    0.0000 C   0  0  0  0  0  0  0  0  0  0  0  0
    0.8308    1.9422    0.0000 C   0  0  0  0  0  0  0  0  0  0  0  0
   -0.5844    2.1255    0.0000 O   0  0  0  0  0  0  0  0  0  0  0  0
   -1.3063    1.5411    0.0000 C   0  0  0  0  0  0  0  0  0  0  0  0
    3.2027   -5.6261    0.0000 C   0  0  0  0  0  0  0  0  0  0  0  0
    3.6151   -4.9214    0.0000 C   0  0  0  0  0  0  0  0  0  0  0  0
   -2.7442    1.5411    0.0000 C   0  0  0  0  0  0  0  0  0  0  0  0
   -3.4547    0.3036    0.0000 C   0  0  0  0  0  0  0  0  0  0  0  0
   -3.4547    1.9536    0.0000 C   0  0  0  0  0  0  0  0  0  0  0  0
   -4.1708    0.7161    0.0000 C   0  0  0  0  0  0  0  0  0  0  0  0
   -4.1708    1.5411    0.0000 C   0  0  0  0  0  0  0  0  0  0  0  0
  2  1  1  0  0  0  0
  3  2  1  0  0  0  0
  4  3  1  0  0  0  0
  5  1  1  0  0  0  0
  6  4  1  0  0  0  0
  7  5  2  0  0  0  0
  8  7  1  0  0  0  0
  9  1  2  0  0  0  0
 10  1  2  0  0  0  0
  3 11  1  6  0  0  0
 12  4  2  0  0  0  0
 13  6  1  0  0  0  0
 14  6  1  0  0  0  0
 15 19  2  0  0  0  0
 16 11  2  0  0  0  0
 17 11  1  0  0  0  0
 18  8  1  0  0  0  0
 19  5  1  0  0  0  0
 20  7  1  0  0  0  0
 21 18  1  0  0  0  0
 22 23  1  0  0  0  0
 23 17  2  0  0  0  0
 24 16  1  0  0  0  0
 25 14  1  0  0  0  0
 26 13  1  0  0  0  0
 27 21  1  0  0  0  0
 28 34  1  0  0  0  0
 29 22  1  0  0  0  0
 30 25  1  0  0  0  0
 31 15  1  0  0  0  0
 32 33  1  0  0  0  0
 18 33  1  1  0  0  0
 34 35  1  0  0  0  0
 35 30  1  0  0  0  0
 36 27  1  0  0  0  0
 37 27  2  0  0  0  0
 38 36  2  0  0  0  0
 39 37  1  0  0  0  0
 40 39  2  0  0  0  0
 20 31  2  0  0  0  0
 22 24  2  0  0  0  0
 30 26  1  0  0  0  0
 40 38  1  0  0  0  0
M  END
>  <Mol Weight>
570.675

>  <Formula>
C29H35FN4O5S

>  <chembl_id>
CHEMBL13151

$$$$

  Mrv0541 06201412482D          

 42 45  0  0  1  0            999 V2000
   10.1961   -9.9999    0.0000 S   0  0  0  0  0  0  0  0  0  0  0  0
   10.1961   -9.1732    0.0000 N   0  0  0  0  0  0  0  0  0  0  0  0
    9.4487  -13.7076    0.0000 C   0  0  0  0  0  0  0  0  0  0  0  0
   10.1878  -10.8266    0.0000 C   0  0  0  0  0  0  0  0  0  0  0  0
    9.4821  -10.4132    0.0000 O   0  0  0  0  0  0  0  0  0  0  0  0
   10.9143  -10.4132    0.0000 O   0  0  0  0  0  0  0  0  0  0  0  0
   10.1627  -13.2942    0.0000 N   0  0  0  0  0  0  0  0  0  0  0  0
    9.4445  -14.5343    0.0000 O   0  0  0  0  0  0  0  0  0  0  0  0
    8.7348  -13.2900    0.0000 O   0  0  0  0  0  0  0  0  0  0  0  0
    9.4696  -11.2274    0.0000 C   0  0  0  0  0  0  0  0  0  0  0  0
   10.8975  -11.2399    0.0000 C   0  0  0  0  0  0  0  0  0  0  0  0
    9.4821   -8.7598    0.0000 C   0  0  0  0  0  0  0  0  0  0  0  0
   10.1752  -12.4675    0.0000 C   0  0  0  0  0  0  0  0  0  0  0  0
    3.0438   -7.5198    0.0000 O   0  0  0  0  0  0  0  0  0  0  0  0
    2.3215   -7.9414    0.0000 C   0  0  0  0  0  0  0  0  0  0  0  0
    4.4760   -7.5198    0.0000 C   0  0  1  0  0  0  0  0  0  0  0  0
    0.8935   -8.7723    0.0000 C   0  0  0  0  0  0  0  0  0  0  0  0
    3.7620   -7.9331    0.0000 C   0  0  0  0  0  0  0  0  0  0  0  0
    8.0166  -13.6950    0.0000 C   0  0  0  0  0  0  0  0  0  0  0  0
    9.4613  -12.0541    0.0000 C   0  0  0  0  0  0  0  0  0  0  0  0
   10.8892  -12.0624    0.0000 C   0  0  0  0  0  0  0  0  0  0  0  0
    5.9039   -7.5198    0.0000 N   0  0  0  0  0  0  0  0  0  0  0  0
    8.0458   -7.9331    0.0000 C   0  0  0  0  0  0  0  0  0  0  0  0
    9.4738   -7.9289    0.0000 C   0  0  0  0  0  0  0  0  0  0  0  0
    8.7598   -9.1732    0.0000 C   0  0  0  0  0  0  0  0  0  0  0  0
    1.6075   -7.5281    0.0000 C   0  0  0  0  0  0  0  0  0  0  0  0
    2.3215   -8.7723    0.0000 C   0  0  0  0  0  0  0  0  0  0  0  0
    0.8935   -7.9414    0.0000 C   0  0  0  0  0  0  0  0  0  0  0  0
    1.6075   -9.1857    0.0000 C   0  0  0  0  0  0  0  0  0  0  0  0
    8.7598   -7.5198    0.0000 C   0  0  0  0  0  0  0  0  0  0  0  0
    8.0458   -8.7598    0.0000 C   0  0  0  0  0  0  0  0  0  0  0  0
    7.3026  -13.2775    0.0000 C   0  0  0  0  0  0  0  0  0  0  0  0
    4.4717   -6.6930    0.0000 O   0  0  0  0  0  0  0  0  0  0  0  0
    0.1796   -9.1857    0.0000 O   0  0  0  0  0  0  0  0  0  0  0  0
    5.1899   -7.9331    0.0000 C   0  0  0  0  0  0  0  0  0  0  0  0
    6.6179   -7.9331    0.0000 C   0  0  0  0  0  0  0  0  0  0  0  0
    7.3319   -7.5198    0.0000 C   0  0  0  0  0  0  0  0  0  0  0  0
    7.3068  -12.4508    0.0000 C   0  0  0  0  0  0  0  0  0  0  0  0
    6.5886  -13.6825    0.0000 C   0  0  0  0  0  0  0  0  0  0  0  0
    5.8747  -13.2691    0.0000 C   0  0  0  0  0  0  0  0  0  0  0  0
    6.6012  -12.0291    0.0000 C   0  0  0  0  0  0  0  0  0  0  0  0
    5.8789  -12.4424    0.0000 C   0  0  0  0  0  0  0  0  0  0  0  0
  2  1  1  0  0  0  0
  3  7  1  0  0  0  0
  4  1  1  0  0  0  0
  5  1  2  0  0  0  0
  6  1  2  0  0  0  0
  7 13  1  0  0  0  0
  8  3  2  0  0  0  0
  9  3  1  0  0  0  0
 10  4  2  0  0  0  0
 11  4  1  0  0  0  0
 12  2  1  0  0  0  0
 13 21  1  0  0  0  0
 14 18  1  0  0  0  0
 15 14  1  0  0  0  0
 16 35  1  0  0  0  0
 17 29  1  0  0  0  0
 18 16  1  0  0  0  0
 19  9  1  0  0  0  0
 20 10  1  0  0  0  0
 21 11  2  0  0  0  0
 22 36  1  0  0  0  0
 23 31  2  0  0  0  0
 24 12  1  0  0  0  0
 25 12  2  0  0  0  0
 26 15  2  0  0  0  0
 27 15  1  0  0  0  0
 28 26  1  0  0  0  0
 29 27  2  0  0  0  0
 30 24  2  0  0  0  0
 31 25  1  0  0  0  0
 32 19  1  0  0  0  0
 16 33  1  1  0  0  0
 34 17  1  0  0  0  0
 35 22  1  0  0  0  0
 36 37  1  0  0  0  0
 37 23  1  0  0  0  0
 38 32  2  0  0  0  0
 39 32  1  0  0  0  0
 40 39  2  0  0  0  0
 41 38  1  0  0  0  0
 42 40  1  0  0  0  0
 13 20  2  0  0  0  0
 23 30  1  0  0  0  0
 42 41  2  0  0  0  0
 17 28  2  0  0  0  0
M  END
>  <Mol Weight>
591.675

>  <Formula>
C31H33N3O7S

>  <chembl_id>
CHEMBL13132

$$$$

  Mrv0541 06201412482D          

 45 47  0  0  1  0            999 V2000
    2.4417   -1.3375    0.0000 C   0  0  0  0  0  0  0  0  0  0  0  0
    3.1542   -0.9167    0.0000 O   0  0  0  0  0  0  0  0  0  0  0  0
    6.0167   -0.9042    0.0000 N   0  0  0  0  0  0  0  0  0  0  0  0
    3.1667   -2.5667    0.0000 O   0  0  0  0  0  0  0  0  0  0  0  0
    6.7375   -2.1375    0.0000 C   0  0  0  0  0  0  0  0  0  0  0  0
    2.4417   -2.1625    0.0000 C   0  0  1  0  0  0  0  0  0  0  0  0
    6.7292   -1.3125    0.0000 C   0  0  1  0  0  0  0  0  0  0  0  0
    6.0042   -0.0792    0.0000 C   0  0  0  0  0  0  0  0  0  0  0  0
    3.8792   -2.1542    0.0000 C   0  0  0  0  0  0  0  0  0  0  0  0
    1.7250   -0.1042    0.0000 C   0  0  0  0  0  0  0  0  0  0  0  0
    2.4375    0.3125    0.0000 C   0  0  1  0  0  0  0  0  0  0  0  0
    3.1542   -0.0917    0.0000 C   0  0  2  0  0  0  0  0  0  0  0  0
    6.0250   -2.5542    0.0000 N   0  0  0  0  0  0  0  0  0  0  0  0
    1.0042    0.3083    0.0000 C   0  0  0  0  0  0  0  0  0  0  0  0
    1.7292   -0.9250    0.0000 O   0  0  0  0  0  0  0  0  0  0  0  0
    5.2917    0.3333    0.0000 C   0  0  0  0  0  0  0  0  0  0  0  0
    7.4417   -0.8917    0.0000 C   0  0  0  0  0  0  0  0  0  0  0  0
    4.5917   -2.5625    0.0000 C   0  0  0  0  0  0  0  0  0  0  0  0
    7.4542   -2.5417    0.0000 O   0  0  0  0  0  0  0  0  0  0  0  0
    4.5792   -0.0875    0.0000 C   0  0  0  0  0  0  0  0  0  0  0  0
    1.7375   -2.5750    0.0000 C   0  0  0  0  0  0  0  0  0  0  0  0
    6.7167    0.3375    0.0000 O   0  0  0  0  0  0  0  0  0  0  0  0
    3.8750   -1.3292    0.0000 O   0  0  0  0  0  0  0  0  0  0  0  0
    5.3042   -2.1417    0.0000 C   0  0  0  0  0  0  0  0  0  0  0  0
    8.1542   -1.3042    0.0000 C   0  0  0  0  0  0  0  0  0  0  0  0
    1.0000    1.1333    0.0000 C   0  0  0  0  0  0  0  0  0  0  0  0
    2.4292    1.1375    0.0000 O   0  0  0  0  0  0  0  0  0  0  0  0
    9.5917   -2.1167    0.0000 C   0  0  0  0  0  0  0  0  0  0  0  0
    3.8625    0.3208    0.0000 C   0  0  0  0  0  0  0  0  0  0  0  0
    8.8667   -0.8875    0.0000 C   0  0  0  0  0  0  0  0  0  0  0  0
    8.1625   -2.1292    0.0000 C   0  0  0  0  0  0  0  0  0  0  0  0
    8.8792   -2.5375    0.0000 C   0  0  0  0  0  0  0  0  0  0  0  0
    9.5792   -1.2917    0.0000 C   0  0  0  0  0  0  0  0  0  0  0  0
   10.3042   -2.5292    0.0000 O   0  0  0  0  0  0  0  0  0  0  0  0
    1.7417   -3.4000    0.0000 C   0  0  0  0  0  0  0  0  0  0  0  0
    3.1500    0.7333    0.0000 C   0  0  0  0  0  0  0  0  0  0  0  0
    1.7125    1.5458    0.0000 C   0  0  0  0  0  0  0  0  0  0  0  0
    0.2792    1.5333    0.0000 C   0  0  0  0  0  0  0  0  0  0  0  0
   10.3125   -3.3542    0.0000 C   0  0  0  0  0  0  0  0  0  0  0  0
    2.4542   -3.8042    0.0000 C   0  0  0  0  0  0  0  0  0  0  0  0
    1.0292   -3.8167    0.0000 C   0  0  0  0  0  0  0  0  0  0  0  0
    0.2750    2.3583    0.0000 C   0  0  0  0  0  0  0  0  0  0  0  0
    1.7042    2.3708    0.0000 C   0  0  0  0  0  0  0  0  0  0  0  0
    0.9917    2.7833    0.0000 C   0  0  0  0  0  0  0  0  0  0  0  0
    4.0212   -0.5901    0.0000 H   0  0  0  0  0  0  0  0  0  0  0  0
  2  1  1  0  0  0  0
  3  8  1  0  0  0  0
  4  6  1  0  0  0  0
  5 13  1  0  0  0  0
  6  1  1  0  0  0  0
  7  5  1  0  0  0  0
  8 16  1  0  0  0  0
  9  4  1  0  0  0  0
 10 11  1  0  0  0  0
 11 12  1  0  0  0  0
 12  2  1  0  0  0  0
 13 24  1  0  0  0  0
 14 10  2  0  0  0  0
 15  1  2  0  0  0  0
 16 20  2  0  0  0  0
  7 17  1  6  0  0  0
 18  9  1  0  0  0  0
 19  5  2  0  0  0  0
 20 29  1  0  0  0  0
  6 21  1  1  0  0  0
 22  8  2  0  0  0  0
 23  9  2  0  0  0  0
 24 18  1  0  0  0  0
 25 17  1  0  0  0  0
 26 14  1  0  0  0  0
 11 27  1  6  0  0  0
 28 32  2  0  0  0  0
 29 12  1  0  0  0  0
 30 25  1  0  0  0  0
 31 25  2  0  0  0  0
 32 31  1  0  0  0  0
 33 30  2  0  0  0  0
 34 28  1  0  0  0  0
 35 21  1  0  0  0  0
 11 36  1  0  0  0  0
 37 26  2  0  0  0  0
 38 26  1  0  0  0  0
 39 34  1  0  0  0  0
 40 35  1  0  0  0  0
 41 35  1  0  0  0  0
 42 38  2  0  0  0  0
 43 37  1  0  0  0  0
 44 42  1  0  0  0  0
  7  3  1  0  0  0  0
 44 43  2  0  0  0  0
 28 33  1  0  0  0  0
 12 45  1  1  0  0  0
M  END
>  <Mol Weight>
606.7059

>  <Formula>
C34H42N2O8

>  <chembl_id>
CHEMBL13551

$$$$

  Mrv0541 06201412482D          

 32 32  0  0  0  0            999 V2000
    8.9031   -0.0573    0.0000 Se  0  0  0  0  0  0  0  0  0  0  0  0
    9.6422   -0.5730    0.0000 C   0  0  0  0  0  0  0  0  0  0  0  0
    8.2156   -0.5730    0.0000 C   0  0  0  0  0  0  0  0  0  0  0  0
    6.0730   -5.1105    0.0000 Se  0  3  0  0  0  0  0  0  0  0  0  0
    6.0730   -4.2855    0.0000 C   0  0  0  0  0  0  0  0  0  0  0  0
    6.7948   -5.5230    0.0000 C   0  0  0  0  0  0  0  0  0  0  0  0
    8.2156   -1.3980    0.0000 C   0  0  0  0  0  0  0  0  0  0  0  0
    9.6422   -1.3980    0.0000 C   0  0  0  0  0  0  0  0  0  0  0  0
    8.9261   -1.8105    0.0000 C   0  0  0  0  0  0  0  0  0  0  0  0
   10.3526   -0.1605    0.0000 C   0  0  0  0  0  0  0  0  0  0  0  0
    7.4995   -0.1605    0.0000 C   0  0  0  0  0  0  0  0  0  0  0  0
    5.3625   -3.8730    0.0000 C   0  0  0  0  0  0  0  0  0  0  0  0
    6.7948   -6.3480    0.0000 C   0  0  0  0  0  0  0  0  0  0  0  0
    8.2156   -3.0480    0.0000 C   0  0  0  0  0  0  0  0  0  0  0  0
    7.5109   -5.1105    0.0000 C   0  0  0  0  0  0  0  0  0  0  0  0
    6.7891   -3.8730    0.0000 C   0  0  0  0  0  0  0  0  0  0  0  0
    8.9261   -2.6355    0.0000 C   0  0  0  0  0  0  0  0  0  0  0  0
    7.4995   -4.2855    0.0000 C   0  0  0  0  0  0  0  0  0  0  0  0
    8.2156   -3.8730    0.0000 C   0  0  0  0  0  0  0  0  0  0  0  0
   10.4500   -3.6151    0.0000 Cl  0  5  0  0  0  0  0  0  0  0  0  0
   11.0687   -0.5558    0.0000 C   0  0  0  0  0  0  0  0  0  0  0  0
   10.3469    0.6645    0.0000 C   0  0  0  0  0  0  0  0  0  0  0  0
    7.4995    0.6645    0.0000 C   0  0  0  0  0  0  0  0  0  0  0  0
    6.7891   -0.5730    0.0000 C   0  0  0  0  0  0  0  0  0  0  0  0
   11.0687    0.2692    0.0000 C   0  0  0  0  0  0  0  0  0  0  0  0
    6.7891    0.2520    0.0000 C   0  0  0  0  0  0  0  0  0  0  0  0
    7.0125   -7.1386    0.0000 C   0  0  0  0  0  0  0  0  0  0  0  0
    5.3625   -3.0480    0.0000 C   0  0  0  0  0  0  0  0  0  0  0  0
    4.6464   -4.2855    0.0000 C   0  0  0  0  0  0  0  0  0  0  0  0
    4.5547   -3.6495    0.0000 C   0  0  0  0  0  0  0  0  0  0  0  0
    6.0844   -6.7605    0.0000 C   0  0  0  0  0  0  0  0  0  0  0  0
    7.5109   -6.7605    0.0000 C   0  0  0  0  0  0  0  0  0  0  0  0
  2  1  1  0  0  0  0
  3  1  1  0  0  0  0
  4  5  1  0  0  0  0
  5 16  2  0  0  0  0
  6 15  1  0  0  0  0
  7  3  2  0  0  0  0
  8  2  2  0  0  0  0
  9  7  1  0  0  0  0
 10  2  1  0  0  0  0
 11  3  1  0  0  0  0
 12  5  1  0  0  0  0
 13  6  1  0  0  0  0
 14 17  1  0  0  0  0
 15 18  2  0  0  0  0
 16 18  1  0  0  0  0
 17  9  2  0  0  0  0
 18 19  1  0  0  0  0
 19 14  2  0  0  0  0
 21 10  1  0  0  0  0
 22 10  1  0  0  0  0
 23 11  1  0  0  0  0
 24 11  1  0  0  0  0
 25 10  1  0  0  0  0
 26 11  1  0  0  0  0
 27 13  1  0  0  0  0
 28 12  1  0  0  0  0
 29 12  1  0  0  0  0
 30 12  1  0  0  0  0
 31 13  1  0  0  0  0
 32 13  1  0  0  0  0
  8  9  1  0  0  0  0
  6  4  2  0  0  0  0
M  CHG  2   4   1  20  -1
M  END
>  <Mol Weight>
585.02

>  <Formula>
C29H43ClSe2

>  <chembl_id>
CHEMBL13581

$$$$

  Mrv0541 06201412482D          

 40 42  0  0  1  0            999 V2000
    8.1667   -8.1292    0.0000 S   0  0  0  0  0  0  0  0  0  0  0  0
    8.1667   -7.3042    0.0000 N   0  0  0  0  0  0  0  0  0  0  0  0
    7.4167  -11.8292    0.0000 C   0  0  0  0  0  0  0  0  0  0  0  0
    8.1625   -8.9542    0.0000 C   0  0  0  0  0  0  0  0  0  0  0  0
    7.4542   -8.5417    0.0000 O   0  0  0  0  0  0  0  0  0  0  0  0
    8.8792   -8.5417    0.0000 O   0  0  0  0  0  0  0  0  0  0  0  0
    8.1375  -11.4250    0.0000 N   0  0  0  0  0  0  0  0  0  0  0  0
    7.4167  -12.6542    0.0000 O   0  0  0  0  0  0  0  0  0  0  0  0
    6.7042  -11.4167    0.0000 N   0  0  0  0  0  0  0  0  0  0  0  0
    7.4417   -9.3542    0.0000 C   0  0  0  0  0  0  0  0  0  0  0  0
    8.8667   -9.3667    0.0000 C   0  0  0  0  0  0  0  0  0  0  0  0
    7.4542   -6.8917    0.0000 C   0  0  0  0  0  0  0  0  0  0  0  0
    8.1417  -10.6000    0.0000 C   0  0  0  0  0  0  0  0  0  0  0  0
    1.0292   -5.6625    0.0000 O   0  0  0  0  0  0  0  0  0  0  0  0
    0.3167   -6.0792    0.0000 C   0  0  0  0  0  0  0  0  0  0  0  0
    2.4542   -5.6542    0.0000 C   0  0  1  0  0  0  0  0  0  0  0  0
   -1.1125   -6.9042    0.0000 C   0  0  0  0  0  0  0  0  0  0  0  0
    1.7417   -6.0667    0.0000 C   0  0  0  0  0  0  0  0  0  0  0  0
    8.8625  -10.1917    0.0000 C   0  0  0  0  0  0  0  0  0  0  0  0
    7.4292  -10.1792    0.0000 C   0  0  0  0  0  0  0  0  0  0  0  0
    3.8792   -5.6542    0.0000 N   0  0  0  0  0  0  0  0  0  0  0  0
    6.0250   -6.0667    0.0000 C   0  0  0  0  0  0  0  0  0  0  0  0
    6.7375   -7.3042    0.0000 C   0  0  0  0  0  0  0  0  0  0  0  0
    7.4500   -6.0667    0.0000 C   0  0  0  0  0  0  0  0  0  0  0  0
    0.3167   -6.9042    0.0000 C   0  0  0  0  0  0  0  0  0  0  0  0
   -0.4000   -5.6667    0.0000 C   0  0  0  0  0  0  0  0  0  0  0  0
   -0.4000   -7.3167    0.0000 C   0  0  0  0  0  0  0  0  0  0  0  0
   -1.1125   -6.0792    0.0000 C   0  0  0  0  0  0  0  0  0  0  0  0
    6.0250   -6.8917    0.0000 C   0  0  0  0  0  0  0  0  0  0  0  0
    6.7375   -5.6542    0.0000 C   0  0  0  0  0  0  0  0  0  0  0  0
    2.4542   -4.8292    0.0000 O   0  0  0  0  0  0  0  0  0  0  0  0
   -1.8333   -7.3167    0.0000 O   0  0  0  0  0  0  0  0  0  0  0  0
    6.0042  -10.1667    0.0000 C   0  0  0  0  0  0  0  0  0  0  0  0
    5.3000   -8.9292    0.0000 O   0  0  0  0  0  0  0  0  0  0  0  0
    6.7167  -10.5917    0.0000 C   0  0  0  0  0  0  0  0  0  0  0  0
    3.1667   -6.0667    0.0000 C   0  0  0  0  0  0  0  0  0  0  0  0
    6.0042   -9.3417    0.0000 C   0  0  0  0  0  0  0  0  0  0  0  0
    4.5917   -6.0667    0.0000 C   0  0  0  0  0  0  0  0  0  0  0  0
    5.3125   -5.6542    0.0000 C   0  0  0  0  0  0  0  0  0  0  0  0
    5.3042   -8.1042    0.0000 C   0  0  0  0  0  0  0  0  0  0  0  0
  2  1  1  0  0  0  0
  3  7  1  0  0  0  0
  4  1  1  0  0  0  0
  5  1  2  0  0  0  0
  6  1  2  0  0  0  0
  7 13  1  0  0  0  0
  8  3  2  0  0  0  0
  9  3  1  0  0  0  0
 10  4  2  0  0  0  0
 11  4  1  0  0  0  0
 12  2  1  0  0  0  0
 13 19  1  0  0  0  0
 14 18  1  0  0  0  0
 15 14  1  0  0  0  0
 16 36  1  0  0  0  0
 17 28  2  0  0  0  0
 18 16  1  0  0  0  0
 19 11  2  0  0  0  0
 20 10  1  0  0  0  0
 21 38  1  0  0  0  0
 22 30  1  0  0  0  0
 23 12  2  0  0  0  0
 24 12  1  0  0  0  0
 25 15  1  0  0  0  0
 26 15  2  0  0  0  0
 27 25  2  0  0  0  0
 28 26  1  0  0  0  0
 29 23  1  0  0  0  0
 30 24  2  0  0  0  0
 16 31  1  1  0  0  0
 32 17  1  0  0  0  0
 33 35  1  0  0  0  0
 34 37  1  0  0  0  0
 35  9  1  0  0  0  0
 36 21  1  0  0  0  0
 37 33  1  0  0  0  0
 38 39  1  0  0  0  0
 39 22  1  0  0  0  0
 40 34  1  0  0  0  0
 20 13  2  0  0  0  0
 22 29  2  0  0  0  0
 17 27  1  0  0  0  0
M  END
>  <Mol Weight>
572.673

>  <Formula>
C28H36N4O7S

>  <chembl_id>
CHEMBL13521

$$$$

  Mrv0541 06201412482D          

 42 43  0  0  1  0            999 V2000
    3.5464   -5.0761    0.0000 C   0  0  0  0  0  0  0  0  0  0  0  0
    9.9917   -4.6636    0.0000 C   0  0  0  0  0  0  0  0  0  0  0  0
   10.7136   -5.0761    0.0000 N   0  0  0  0  0  0  0  0  0  0  0  0
    4.2683   -4.6636    0.0000 N   0  0  0  0  0  0  0  0  0  0  0  0
    2.8359   -4.6636    0.0000 C   0  0  1  0  0  0  0  0  0  0  0  0
    5.6948   -4.6636    0.0000 C   0  0  0  0  0  0  0  0  0  0  0  0
    9.2813   -5.0761    0.0000 C   0  0  2  0  0  0  0  0  0  0  0  0
   11.4297   -4.6636    0.0000 C   0  0  1  0  0  0  0  0  0  0  0  0
   12.1401   -5.0761    0.0000 C   0  0  0  0  0  0  0  0  0  0  0  0
    8.5651   -4.6636    0.0000 N   0  0  0  0  0  0  0  0  0  0  0  0
    7.8433   -5.0761    0.0000 C   0  0  0  0  0  0  0  0  0  0  0  0
    6.4167   -5.0761    0.0000 N   0  0  0  0  0  0  0  0  0  0  0  0
    4.9844   -5.0761    0.0000 C   0  0  2  0  0  0  0  0  0  0  0  0
    2.8359   -3.8386    0.0000 C   0  0  0  0  0  0  0  0  0  0  0  0
    3.5464   -5.9011    0.0000 O   0  0  0  0  0  0  0  0  0  0  0  0
    9.9917   -3.8386    0.0000 O   0  0  0  0  0  0  0  0  0  0  0  0
    9.2813   -5.9011    0.0000 C   0  0  0  0  0  0  0  0  0  0  0  0
    5.6948   -3.8386    0.0000 O   0  0  0  0  0  0  0  0  0  0  0  0
   12.1401   -5.9011    0.0000 O   0  0  0  0  0  0  0  0  0  0  0  0
   11.4297   -3.8386    0.0000 C   0  0  0  0  0  0  0  0  0  0  0  0
    7.8433   -5.9011    0.0000 O   0  0  0  0  0  0  0  0  0  0  0  0
    7.1328   -4.6636    0.0000 C   0  0  0  0  0  0  0  0  0  0  0  0
    2.1198   -5.0761    0.0000 N   0  0  0  0  0  0  0  0  0  0  0  0
    2.1198   -3.4261    0.0000 C   0  0  0  0  0  0  0  0  0  0  0  0
   12.8620   -4.6636    0.0000 O   0  0  0  0  0  0  0  0  0  0  0  0
    0.6875   -2.6011    0.0000 C   0  0  0  0  0  0  0  0  0  0  0  0
    9.9917   -6.3136    0.0000 C   0  0  0  0  0  0  0  0  0  0  0  0
    1.3980   -3.8386    0.0000 C   0  0  0  0  0  0  0  0  0  0  0  0
    2.1198   -2.6011    0.0000 C   0  0  0  0  0  0  0  0  0  0  0  0
    0.6875   -3.4261    0.0000 C   0  0  0  0  0  0  0  0  0  0  0  0
    1.3980   -2.1828    0.0000 C   0  0  0  0  0  0  0  0  0  0  0  0
   -0.0286   -2.1828    0.0000 O   0  0  0  0  0  0  0  0  0  0  0  0
    2.8245   -5.4886    0.0000 C   0  0  0  0  0  0  0  0  0  0  0  0
   12.1401   -3.4261    0.0000 C   0  0  0  0  0  0  0  0  0  0  0  0
    4.9844   -5.9011    0.0000 C   0  0  0  0  0  0  0  0  0  0  0  0
    9.9917   -7.1500    0.0000 C   0  0  0  0  0  0  0  0  0  0  0  0
   10.7136   -5.9011    0.0000 C   0  0  0  0  0  0  0  0  0  0  0  0
   12.1401   -2.6011    0.0000 C   0  0  0  0  0  0  0  0  0  0  0  0
   12.8620   -3.8386    0.0000 C   0  0  0  0  0  0  0  0  0  0  0  0
   11.4297   -6.3136    0.0000 C   0  0  0  0  0  0  0  0  0  0  0  0
   10.7136   -7.5625    0.0000 C   0  0  0  0  0  0  0  0  0  0  0  0
   11.4297   -7.1500    0.0000 C   0  0  0  0  0  0  0  0  0  0  0  0
  2  7  1  0  0  0  0
  3  2  1  0  0  0  0
  4  1  1  0  0  0  0
  5  1  1  0  0  0  0
  6 13  1  0  0  0  0
  7 10  1  0  0  0  0
  8  3  1  0  0  0  0
  9  8  1  0  0  0  0
 10 11  1  0  0  0  0
 11 22  1  0  0  0  0
 12  6  1  0  0  0  0
 13  4  1  0  0  0  0
  5 14  1  1  0  0  0
 15  1  2  0  0  0  0
 16  2  2  0  0  0  0
  7 17  1  1  0  0  0
 18  6  2  0  0  0  0
 19  9  2  0  0  0  0
  8 20  1  6  0  0  0
 21 11  2  0  0  0  0
 22 12  1  0  0  0  0
 23  5  1  0  0  0  0
 24 14  1  0  0  0  0
 25  9  1  0  0  0  0
 26 31  2  0  0  0  0
 27 17  1  0  0  0  0
 28 24  1  0  0  0  0
 29 24  2  0  0  0  0
 30 28  2  0  0  0  0
 31 29  1  0  0  0  0
 32 26  1  0  0  0  0
 33  5  1  0  0  0  0
 34 20  1  0  0  0  0
 13 35  1  6  0  0  0
 36 27  2  0  0  0  0
 37 27  1  0  0  0  0
 38 34  1  0  0  0  0
 39 34  1  0  0  0  0
 40 37  2  0  0  0  0
 41 36  1  0  0  0  0
 42 40  1  0  0  0  0
 26 30  1  0  0  0  0
 41 42  2  0  0  0  0
M  END
>  <Mol Weight>
583.6758

>  <Formula>
C30H41N5O7

>  <chembl_id>
CHEMBL13665

$$$$

  Mrv0541 06201412482D          

 29 31  0  0  0  0            999 V2000
    5.9843    0.9738    0.0000 C   0  0  0  0  0  0  0  0  0  0  0  0
    1.7021    0.9613    0.0000 C   0  0  0  0  0  0  0  0  0  0  0  0
    0.9905    1.3733    0.0000 C   0  0  0  0  0  0  0  0  0  0  0  0
    6.6917    1.3983    0.0000 N   0  0  0  0  0  0  0  0  0  0  0  0
    2.4220    1.3733    0.0000 N   0  0  0  0  0  0  0  0  0  0  0  0
    7.4158    0.9946    0.0000 C   0  0  0  0  0  0  0  0  0  0  0  0
    8.1149    1.4190    0.0000 C   0  0  0  0  0  0  0  0  0  0  0  0
    5.2727    1.3816    0.0000 N   0  0  0  0  0  0  0  0  0  0  0  0
    8.8308    1.0237    0.0000 C   0  0  0  0  0  0  0  0  0  0  0  0
    0.2871    0.9613    0.0000 C   0  0  0  0  0  0  0  0  0  0  0  0
    0.9988    2.2056    0.0000 C   0  0  0  0  0  0  0  0  0  0  0  0
    3.1336    0.9613    0.0000 C   0  0  0  0  0  0  0  0  0  0  0  0
    6.0051    0.3079    0.0000 O   0  0  0  0  0  0  0  0  0  0  0  0
    0.2789    2.6176    0.0000 C   0  0  0  0  0  0  0  0  0  0  0  0
   -0.4328    1.3691    0.0000 C   0  0  0  0  0  0  0  0  0  0  0  0
    1.7021    0.1373    0.0000 O   0  0  0  0  0  0  0  0  0  0  0  0
   -0.4328    2.2056    0.0000 C   0  0  0  0  0  0  0  0  0  0  0  0
    3.8452    1.3816    0.0000 C   0  0  0  0  0  0  0  0  0  0  0  0
    4.5610    0.9696    0.0000 C   0  0  0  0  0  0  0  0  0  0  0  0
    7.4200    0.1706    0.0000 C   0  0  0  0  0  0  0  0  0  0  0  0
    8.8515    0.1956    0.0000 C   0  0  0  0  0  0  0  0  0  0  0  0
    8.0942    2.2430    0.0000 Br  0  0  0  0  0  0  0  0  0  0  0  0
    0.2789    3.4415    0.0000 Cl  0  0  0  0  0  0  0  0  0  0  0  0
   -1.1444    0.9571    0.0000 Cl  0  0  0  0  0  0  0  0  0  0  0  0
    8.1441   -0.2289    0.0000 C   0  0  0  0  0  0  0  0  0  0  0  0
    9.5673   -0.2039    0.0000 Br  0  0  0  0  0  0  0  0  0  0  0  0
    3.8452   -0.2747    0.0000 C   0  0  0  0  0  0  0  0  0  0  0  0
    3.1336    0.1373    0.0000 C   0  0  0  0  0  0  0  0  0  0  0  0
    4.5610    0.1373    0.0000 C   0  0  0  0  0  0  0  0  0  0  0  0
  2  5  1  0  0  0  0
  3  2  1  0  0  0  0
  4  1  1  0  0  0  0
  5 12  1  0  0  0  0
  6  4  1  0  0  0  0
  7  6  1  0  0  0  0
  8  1  1  0  0  0  0
  9  7  2  0  0  0  0
 10  3  1  0  0  0  0
 11  3  2  0  0  0  0
 12 18  2  0  0  0  0
 13  1  2  0  0  0  0
 14 11  1  0  0  0  0
 15 10  2  0  0  0  0
 16  2  2  0  0  0  0
 17 14  2  0  0  0  0
 18 19  1  0  0  0  0
 19  8  1  0  0  0  0
 20  6  2  0  0  0  0
 21 25  2  0  0  0  0
 22  7  1  0  0  0  0
 23 14  1  0  0  0  0
 24 15  1  0  0  0  0
 25 20  1  0  0  0  0
 26 21  1  0  0  0  0
 27 29  1  0  0  0  0
 28 27  2  0  0  0  0
 29 19  2  0  0  0  0
 28 12  1  0  0  0  0
 21  9  1  0  0  0  0
 15 17  1  0  0  0  0
M  END
>  <Mol Weight>
558.05

>  <Formula>
C20H13Br2Cl2N3O2

>  <chembl_id>
CHEMBL13686

$$$$

  Mrv0541 06201412482D          

 46 48  0  0  1  0            999 V2000
    2.9417   -1.4542    0.0000 C   0  0  0  0  0  0  0  0  0  0  0  0
    1.5042   -0.6417    0.0000 C   0  0  0  0  0  0  0  0  0  0  0  0
    2.2292   -1.8750    0.0000 O   0  0  0  0  0  0  0  0  0  0  0  0
    2.2167   -0.2167    0.0000 O   0  0  0  0  0  0  0  0  0  0  0  0
    5.0792   -0.2042    0.0000 N   0  0  0  0  0  0  0  0  0  0  0  0
    5.8000   -1.4417    0.0000 C   0  0  0  0  0  0  0  0  0  0  0  0
    1.5125   -1.4667    0.0000 C   0  0  1  0  0  0  0  0  0  0  0  0
    5.0875   -1.8542    0.0000 N   0  0  0  0  0  0  0  0  0  0  0  0
    5.7917   -0.6167    0.0000 C   0  0  1  0  0  0  0  0  0  0  0  0
    3.6542   -1.8667    0.0000 C   0  0  1  0  0  0  0  0  0  0  0  0
    5.0667    0.6208    0.0000 C   0  0  0  0  0  0  0  0  0  0  0  0
    0.7792    0.5958    0.0000 C   0  0  0  0  0  0  0  0  0  0  0  0
    2.2167    0.6000    0.0000 C   0  0  2  0  0  0  0  0  0  0  0  0
    4.3667   -1.4500    0.0000 C   0  0  0  0  0  0  0  0  0  0  0  0
    0.0667    1.0083    0.0000 C   0  0  0  0  0  0  0  0  0  0  0  0
    2.9375   -0.6292    0.0000 O   0  0  0  0  0  0  0  0  0  0  0  0
    0.7917   -0.2292    0.0000 O   0  0  0  0  0  0  0  0  0  0  0  0
    4.3542    1.0250    0.0000 C   0  0  0  0  0  0  0  0  0  0  0  0
    6.5042   -0.2000    0.0000 C   0  0  0  0  0  0  0  0  0  0  0  0
    6.5167   -1.8500    0.0000 O   0  0  0  0  0  0  0  0  0  0  0  0
    3.6417    0.6083    0.0000 C   0  0  0  0  0  0  0  0  0  0  0  0
    0.8000   -1.8792    0.0000 C   0  0  0  0  0  0  0  0  0  0  0  0
    5.7792    1.0333    0.0000 O   0  0  0  0  0  0  0  0  0  0  0  0
    1.5000    1.0083    0.0000 C   0  0  1  0  0  0  0  0  0  0  0  0
    7.2167   -0.6042    0.0000 C   0  0  0  0  0  0  0  0  0  0  0  0
   -0.6458    0.5875    0.0000 C   0  0  0  0  0  0  0  0  0  0  0  0
    8.6542   -1.4250    0.0000 C   0  0  0  0  0  0  0  0  0  0  0  0
    2.9250    1.0208    0.0000 C   0  0  0  0  0  0  0  0  0  0  0  0
    7.9292   -0.1917    0.0000 C   0  0  0  0  0  0  0  0  0  0  0  0
    7.2250   -1.4292    0.0000 C   0  0  0  0  0  0  0  0  0  0  0  0
    7.9417   -1.8417    0.0000 C   0  0  0  0  0  0  0  0  0  0  0  0
    8.6417   -0.5917    0.0000 C   0  0  0  0  0  0  0  0  0  0  0  0
    9.3667   -1.8292    0.0000 O   0  0  0  0  0  0  0  0  0  0  0  0
    3.6625   -2.6917    0.0000 C   0  0  0  0  0  0  0  0  0  0  0  0
    0.8042   -2.7042    0.0000 C   0  0  0  0  0  0  0  0  0  0  0  0
    1.4917    1.8333    0.0000 C   0  0  0  0  0  0  0  0  0  0  0  0
   -0.6333   -0.2375    0.0000 C   0  0  0  0  0  0  0  0  0  0  0  0
   -1.3583    0.9958    0.0000 C   0  0  0  0  0  0  0  0  0  0  0  0
    9.3750   -2.6542    0.0000 C   0  0  0  0  0  0  0  0  0  0  0  0
    0.0917   -3.1167    0.0000 C   0  0  0  0  0  0  0  0  0  0  0  0
    1.5167   -3.1125    0.0000 C   0  0  0  0  0  0  0  0  0  0  0  0
   -2.0708    0.5833    0.0000 C   0  0  0  0  0  0  0  0  0  0  0  0
   -1.3458   -0.6542    0.0000 C   0  0  0  0  0  0  0  0  0  0  0  0
   -2.0625   -0.2417    0.0000 C   0  0  0  0  0  0  0  0  0  0  0  0
    0.6324    1.5056    0.0000 H   0  0  0  0  0  0  0  0  0  0  0  0
    3.0858    0.1054    0.0000 H   0  0  0  0  0  0  0  0  0  0  0  0
  2  7  1  0  0  0  0
  3  1  1  0  0  0  0
  4  2  1  0  0  0  0
  5  9  1  0  0  0  0
  6  8  1  0  0  0  0
  7  3  1  0  0  0  0
  8 14  1  0  0  0  0
  9  6  1  0  0  0  0
 10  1  1  0  0  0  0
 11  5  1  0  0  0  0
 12 24  1  0  0  0  0
 13  4  1  0  0  0  0
 14 10  1  0  0  0  0
 15 12  2  0  0  0  0
 16  1  2  0  0  0  0
 17  2  2  0  0  0  0
 18 11  1  0  0  0  0
  9 19  1  6  0  0  0
 20  6  2  0  0  0  0
 21 28  1  0  0  0  0
  7 22  1  1  0  0  0
 23 11  2  0  0  0  0
 24 13  1  0  0  0  0
 25 19  1  0  0  0  0
 26 15  1  0  0  0  0
 27 31  2  0  0  0  0
 28 13  1  0  0  0  0
 29 25  1  0  0  0  0
 30 25  2  0  0  0  0
 31 30  1  0  0  0  0
 32 29  2  0  0  0  0
 33 27  1  0  0  0  0
 10 34  1  1  0  0  0
 35 22  1  0  0  0  0
 24 36  1  0  0  0  0
 37 26  1  0  0  0  0
 38 26  2  0  0  0  0
 39 33  1  0  0  0  0
 40 35  1  0  0  0  0
 41 35  1  0  0  0  0
 42 38  1  0  0  0  0
 43 37  2  0  0  0  0
 44 42  2  0  0  0  0
 24 45  1  1  0  0  0
 18 21  2  0  0  0  0
 27 32  1  0  0  0  0
 44 43  1  0  0  0  0
 13 46  1  1  0  0  0
M  END
>  <Mol Weight>
604.7331

>  <Formula>
C35H44N2O7

>  <chembl_id>
CHEMBL13610

$$$$

  Mrv0541 06201412482D          

 40 41  0  0  1  0            999 V2000
    0.7104   -2.0648    0.0000 C   0  0  0  0  0  0  0  0  0  0  0  0
    0.7104   -2.8898    0.0000 N   0  0  0  0  0  0  0  0  0  0  0  0
    4.2786   -6.6092    0.0000 C   0  0  0  0  0  0  0  0  0  0  0  0
    1.4254   -1.6500    0.0000 C   0  0  1  0  0  0  0  0  0  0  0  0
    2.1404   -2.0648    0.0000 N   0  0  0  0  0  0  0  0  0  0  0  0
   -0.7173   -2.8875    0.0000 C   0  0  0  0  0  0  0  0  0  0  0  0
    2.1381   -2.8898    0.0000 C   0  0  0  0  0  0  0  0  0  0  0  0
    4.2786   -5.7842    0.0000 N   0  0  0  0  0  0  0  0  0  0  0  0
   -0.0046   -3.3023    0.0000 C   0  0  2  0  0  0  0  0  0  0  0  0
    3.5658   -4.5444    0.0000 C   0  0  0  0  0  0  0  0  0  0  0  0
    4.9912   -7.0239    0.0000 C   0  0  2  0  0  0  0  0  0  0  0  0
    2.8508   -4.1296    0.0000 N   0  0  0  0  0  0  0  0  0  0  0  0
    0.1398   -1.7348    0.0000 O   0  0  0  0  0  0  0  0  0  0  0  0
    1.4277   -0.8250    0.0000 C   0  0  0  0  0  0  0  0  0  0  0  0
    3.7056   -6.9392    0.0000 O   0  0  0  0  0  0  0  0  0  0  0  0
   -0.7173   -2.2275    0.0000 O   0  0  0  0  0  0  0  0  0  0  0  0
    4.9912   -7.8489    0.0000 C   0  0  0  0  0  0  0  0  0  0  0  0
    1.5675   -3.2198    0.0000 O   0  0  0  0  0  0  0  0  0  0  0  0
    4.1387   -4.2144    0.0000 O   0  0  0  0  0  0  0  0  0  0  0  0
    3.5636   -5.3694    0.0000 C   0  0  0  0  0  0  0  0  0  0  0  0
    2.8531   -3.3046    0.0000 C   0  0  0  0  0  0  0  0  0  0  0  0
    5.7039   -8.2637    0.0000 C   0  0  0  0  0  0  0  0  0  0  0  0
    5.5642   -6.6939    0.0000 N   0  0  0  0  0  0  0  0  0  0  0  0
   -1.2902   -3.2175    0.0000 O   0  0  0  0  0  0  0  0  0  0  0  0
   -0.0046   -4.1273    0.0000 C   0  0  0  0  0  0  0  0  0  0  0  0
    7.1339   -9.0887    0.0000 C   0  0  0  0  0  0  0  0  0  0  0  0
    0.7127   -0.4125    0.0000 C   0  0  0  0  0  0  0  0  0  0  0  0
   -0.7196   -5.3671    0.0000 S   0  0  0  0  0  0  0  0  0  0  0  0
    6.4189   -7.8512    0.0000 C   0  0  0  0  0  0  0  0  0  0  0  0
    5.7039   -9.0887    0.0000 C   0  0  0  0  0  0  0  0  0  0  0  0
    6.4189   -9.5012    0.0000 C   0  0  0  0  0  0  0  0  0  0  0  0
    7.1339   -8.2637    0.0000 C   0  0  0  0  0  0  0  0  0  0  0  0
    7.7046   -9.4187    0.0000 O   0  0  0  0  0  0  0  0  0  0  0  0
   -0.7196   -4.5398    0.0000 C   0  0  0  0  0  0  0  0  0  0  0  0
   -1.2902   -5.6971    0.0000 C   0  0  0  0  0  0  0  0  0  0  0  0
    0.7127    0.4125    0.0000 C   0  0  0  0  0  0  0  0  0  0  0  0
    0.0000   -0.8250    0.0000 C   0  0  0  0  0  0  0  0  0  0  0  0
   -0.7150   -0.4125    0.0000 C   0  0  0  0  0  0  0  0  0  0  0  0
    0.0000    0.8250    0.0000 C   0  0  0  0  0  0  0  0  0  0  0  0
   -0.7150    0.4125    0.0000 C   0  0  0  0  0  0  0  0  0  0  0  0
  2  1  1  0  0  0  0
  3  8  1  0  0  0  0
  4  1  1  0  0  0  0
  5  4  1  0  0  0  0
  6  9  1  0  0  0  0
  7  5  1  0  0  0  0
  8 20  1  0  0  0  0
  9  2  1  0  0  0  0
 10 12  1  0  0  0  0
 11  3  1  0  0  0  0
 12 21  1  0  0  0  0
 13  1  2  0  0  0  0
  4 14  1  6  0  0  0
 15  3  2  0  0  0  0
 16  6  2  0  0  0  0
 17 11  1  0  0  0  0
 18  7  2  0  0  0  0
 19 10  2  0  0  0  0
 20 10  1  0  0  0  0
 21  7  1  0  0  0  0
 22 17  1  0  0  0  0
 11 23  1  1  0  0  0
 24  6  1  0  0  0  0
  9 25  1  1  0  0  0
 26 32  1  0  0  0  0
 27 14  1  0  0  0  0
 28 34  1  0  0  0  0
 29 22  1  0  0  0  0
 30 22  2  0  0  0  0
 31 30  1  0  0  0  0
 32 29  2  0  0  0  0
 33 26  1  0  0  0  0
 34 25  1  0  0  0  0
 35 28  1  0  0  0  0
 36 27  2  0  0  0  0
 37 27  1  0  0  0  0
 38 37  2  0  0  0  0
 39 36  1  0  0  0  0
 40 38  1  0  0  0  0
 40 39  2  0  0  0  0
 26 31  2  0  0  0  0
M  END
>  <Mol Weight>
573.661

>  <Formula>
C27H35N5O7S

>  <chembl_id>
CHEMBL13786

$$$$

  Mrv0541 06201412482D          

 41 43  0  0  1  0            999 V2000
   -0.6843    0.6116    0.0000 P   0  0  0  0  0  0  0  0  0  0  0  0
    2.8860   -3.1042    0.0000 C   0  0  0  0  0  0  0  0  0  0  0  0
    3.6001   -2.6910    0.0000 N   0  0  0  0  0  0  0  0  0  0  0  0
    2.1719   -2.6910    0.0000 C   0  0  1  0  0  0  0  0  0  0  0  0
    4.3175   -3.1042    0.0000 C   0  0  2  0  0  0  0  0  0  0  0  0
    5.0315   -2.6910    0.0000 C   0  0  0  0  0  0  0  0  0  0  0  0
    1.4579   -3.1042    0.0000 N   0  0  0  0  0  0  0  0  0  0  0  0
    1.4579   -3.9273    0.0000 C   0  0  0  0  0  0  0  0  0  0  0  0
   -0.6843   -0.2116    0.0000 O   0  0  0  0  0  0  0  0  0  0  0  0
    0.1388    0.6116    0.0000 O   0  0  0  0  0  0  0  0  0  0  0  0
    2.8860   -3.9273    0.0000 O   0  0  0  0  0  0  0  0  0  0  0  0
    2.1719   -1.8645    0.0000 C   0  0  0  0  0  0  0  0  0  0  0  0
    4.3175   -4.3439    0.0000 C   0  0  0  0  0  0  0  0  0  0  0  0
    5.0315   -1.8645    0.0000 O   0  0  0  0  0  0  0  0  0  0  0  0
    2.1719   -4.3373    0.0000 O   0  0  0  0  0  0  0  0  0  0  0  0
   -0.6843    1.4347    0.0000 O   0  0  0  0  0  0  0  0  0  0  0  0
   -1.5141    0.6116    0.0000 O   0  0  0  0  0  0  0  0  0  0  0  0
    5.7456   -3.1042    0.0000 N   0  0  0  0  0  0  0  0  0  0  0  0
    0.0298   -0.6281    0.0000 C   0  0  0  0  0  0  0  0  0  0  0  0
    1.4579   -1.4513    0.0000 C   0  0  0  0  0  0  0  0  0  0  0  0
    5.0315   -4.7538    0.0000 C   0  0  0  0  0  0  0  0  0  0  0  0
    6.4597   -5.5836    0.0000 C   0  0  0  0  0  0  0  0  0  0  0  0
    1.4579   -0.6281    0.0000 C   0  0  0  0  0  0  0  0  0  0  0  0
    5.0315   -5.5836    0.0000 C   0  0  0  0  0  0  0  0  0  0  0  0
    5.7456   -4.3439    0.0000 C   0  0  0  0  0  0  0  0  0  0  0  0
    0.7438   -1.8645    0.0000 C   0  0  0  0  0  0  0  0  0  0  0  0
    0.7438   -0.2116    0.0000 C   0  0  0  0  0  0  0  0  0  0  0  0
    0.0298   -1.4513    0.0000 C   0  0  0  0  0  0  0  0  0  0  0  0
    6.4597   -4.7538    0.0000 C   0  0  0  0  0  0  0  0  0  0  0  0
    5.7456   -5.9935    0.0000 C   0  0  0  0  0  0  0  0  0  0  0  0
    7.1737   -5.9935    0.0000 O   0  0  0  0  0  0  0  0  0  0  0  0
    8.6018   -3.1042    0.0000 C   0  0  0  0  0  0  0  0  0  0  0  0
    0.7438   -4.3373    0.0000 C   0  0  0  0  0  0  0  0  0  0  0  0
    6.4597   -2.6910    0.0000 C   0  0  0  0  0  0  0  0  0  0  0  0
    7.8878   -2.6910    0.0000 C   0  0  0  0  0  0  0  0  0  0  0  0
    9.3159   -2.6910    0.0000 C   0  0  0  0  0  0  0  0  0  0  0  0
    8.6018   -3.9273    0.0000 C   0  0  0  0  0  0  0  0  0  0  0  0
    7.1737   -3.1042    0.0000 C   0  0  0  0  0  0  0  0  0  0  0  0
   10.0300   -3.1042    0.0000 C   0  0  0  0  0  0  0  0  0  0  0  0
    9.3159   -4.3373    0.0000 C   0  0  0  0  0  0  0  0  0  0  0  0
   10.0300   -3.9273    0.0000 C   0  0  0  0  0  0  0  0  0  0  0  0
  2  4  1  0  0  0  0
  3  2  1  0  0  0  0
  4 12  1  1  0  0  0
  5  3  1  0  0  0  0
  6  5  1  0  0  0  0
  7  4  1  0  0  0  0
  8  7  1  0  0  0  0
  9  1  1  0  0  0  0
 10  1  2  0  0  0  0
 11  2  2  0  0  0  0
 12 20  1  0  0  0  0
  5 13  1  6  0  0  0
 14  6  2  0  0  0  0
 15  8  2  0  0  0  0
 16  1  1  0  0  0  0
 17  1  1  0  0  0  0
 18  6  1  0  0  0  0
 19  9  1  0  0  0  0
 20 26  1  0  0  0  0
 21 13  1  0  0  0  0
 22 29  1  0  0  0  0
 23 27  1  0  0  0  0
 24 21  2  0  0  0  0
 25 21  1  0  0  0  0
 26 28  2  0  0  0  0
 27 19  2  0  0  0  0
 28 19  1  0  0  0  0
 29 25  2  0  0  0  0
 30 24  1  0  0  0  0
 31 22  1  0  0  0  0
 32 35  1  0  0  0  0
 33  8  1  0  0  0  0
 34 18  1  0  0  0  0
 35 38  1  0  0  0  0
 36 32  1  0  0  0  0
 37 32  2  0  0  0  0
 38 34  1  0  0  0  0
 39 36  2  0  0  0  0
 40 37  1  0  0  0  0
 41 40  2  0  0  0  0
 20 23  2  0  0  0  0
 22 30  2  0  0  0  0
 41 39  1  0  0  0  0
M  END
>  <Mol Weight>
583.5693

>  <Formula>
C29H34N3O8P

>  <chembl_id>
CHEMBL13690

$$$$

  Mrv0541 06201412482D          

 39 44  0  0  1  0            999 V2000
    5.5417   -7.0375    0.0000 N   0  0  0  0  0  0  0  0  0  0  0  0
    4.7167   -7.0417    0.0000 C   0  0  0  0  0  0  0  0  0  0  0  0
    5.5417   -6.2167    0.0000 C   0  0  0  0  0  0  0  0  0  0  0  0
    4.7167   -6.2167    0.0000 C   0  0  2  0  0  0  0  0  0  0  0  0
    6.2417   -7.4500    0.0000 C   0  0  0  0  0  0  0  0  0  0  0  0
    3.3417   -5.8500    0.0000 C   0  0  0  0  0  0  0  0  0  0  0  0
    6.2417   -8.2750    0.0000 C   0  0  0  0  0  0  0  0  0  0  0  0
    2.7042   -5.3292    0.0000 N   0  0  0  0  0  0  0  0  0  0  0  0
    2.0167   -5.7792    0.0000 C   0  0  0  0  0  0  0  0  0  0  0  0
    2.2250   -6.5792    0.0000 C   0  0  0  0  0  0  0  0  0  0  0  0
    3.0500   -6.6167    0.0000 N   0  0  0  0  0  0  0  0  0  0  0  0
    6.2542   -5.8042    0.0000 S   0  0  0  0  0  0  0  0  0  0  0  0
    6.9625   -7.0417    0.0000 C   0  0  0  0  0  0  0  0  0  0  0  0
    4.1375   -5.6292    0.0000 N   0  0  0  0  0  0  0  0  0  0  0  0
    6.9542   -8.6917    0.0000 O   0  0  0  0  0  0  0  0  0  0  0  0
    6.9500   -9.5167    0.0000 C   0  0  0  0  0  0  0  0  0  0  0  0
    0.8917   -6.5042    0.0000 S   0  0  0  0  0  0  0  0  0  0  0  0
    6.9667   -6.2250    0.0000 C   0  0  0  0  0  0  0  0  0  0  0  0
    1.1917   -5.7292    0.0000 C   0  0  0  0  0  0  0  0  0  0  0  0
    1.5292   -7.0250    0.0000 C   0  0  0  0  0  0  0  0  0  0  0  0
    4.1417   -7.6292    0.0000 O   0  0  0  0  0  0  0  0  0  0  0  0
    5.5250   -8.6792    0.0000 O   0  0  0  0  0  0  0  0  0  0  0  0
    7.6667   -7.4625    0.0000 C   0  0  0  0  0  0  0  0  0  0  0  0
    9.1000   -7.4750    0.0000 C   0  0  0  0  0  0  0  0  0  0  0  0
    8.3917   -7.0542    0.0000 O   0  0  0  0  0  0  0  0  0  0  0  0
    7.6542   -9.9375    0.0000 C   0  0  0  0  0  0  0  0  0  0  0  0
    6.2292   -9.9250    0.0000 C   0  0  0  0  0  0  0  0  0  0  0  0
    9.0917   -8.3000    0.0000 O   0  0  0  0  0  0  0  0  0  0  0  0
    9.8167   -7.0667    0.0000 C   0  0  0  0  0  0  0  0  0  0  0  0
    8.3667   -9.5292    0.0000 C   0  0  0  0  0  0  0  0  0  0  0  0
    5.5167   -9.5042    0.0000 C   0  0  0  0  0  0  0  0  0  0  0  0
    6.2292  -10.7500    0.0000 C   0  0  0  0  0  0  0  0  0  0  0  0
    7.6500  -10.7625    0.0000 C   0  0  0  0  0  0  0  0  0  0  0  0
    4.8042   -9.9125    0.0000 C   0  0  0  0  0  0  0  0  0  0  0  0
    5.5167  -11.1542    0.0000 C   0  0  0  0  0  0  0  0  0  0  0  0
    8.3625  -11.1792    0.0000 C   0  0  0  0  0  0  0  0  0  0  0  0
    9.0792   -9.9417    0.0000 C   0  0  0  0  0  0  0  0  0  0  0  0
    4.8000  -10.7417    0.0000 C   0  0  0  0  0  0  0  0  0  0  0  0
    9.0792  -10.7667    0.0000 C   0  0  0  0  0  0  0  0  0  0  0  0
  2  1  1  0  0  0  0
  3  1  1  0  0  0  0
  4  3  1  0  0  0  0
  5  1  1  0  0  0  0
  6 14  1  0  0  0  0
  7  5  1  0  0  0  0
  8  6  2  0  0  0  0
  9  8  1  0  0  0  0
 10 11  1  0  0  0  0
 11  6  1  0  0  0  0
 12  3  1  0  0  0  0
 13  5  2  0  0  0  0
  4 14  1  1  0  0  0
 15  7  1  0  0  0  0
 16 15  1  0  0  0  0
 17 20  1  0  0  0  0
 18 13  1  0  0  0  0
 19  9  2  0  0  0  0
 20 10  2  0  0  0  0
 21  2  2  0  0  0  0
 22  7  2  0  0  0  0
 23 13  1  0  0  0  0
 24 25  1  0  0  0  0
 25 23  1  0  0  0  0
 26 16  1  0  0  0  0
 27 16  1  0  0  0  0
 28 24  2  0  0  0  0
 29 24  1  0  0  0  0
 30 26  1  0  0  0  0
 31 27  2  0  0  0  0
 32 27  1  0  0  0  0
 33 26  2  0  0  0  0
 34 31  1  0  0  0  0
 35 32  2  0  0  0  0
 36 33  1  0  0  0  0
 37 30  2  0  0  0  0
 38 35  1  0  0  0  0
 39 36  2  0  0  0  0
  4  2  1  0  0  0  0
 12 18  1  0  0  0  0
  9 10  1  0  0  0  0
 17 19  1  0  0  0  0
 38 34  2  0  0  0  0
 39 37  1  0  0  0  0
M  END
>  <Mol Weight>
560.644

>  <Formula>
C28H24N4O5S2

>  <chembl_id>
CHEMBL13612

$$$$

  Mrv0541 06201412482D          

 34 36  0  0  0  0            999 V2000
    4.1292   -0.8292    0.0000 C   0  0  0  0  0  0  0  0  0  0  0  0
   -0.1583   -0.8417    0.0000 C   0  0  0  0  0  0  0  0  0  0  0  0
    6.2667   -0.4125    0.0000 C   0  0  0  0  0  0  0  0  0  0  0  0
   -2.2958   -0.4292    0.0000 C   0  0  0  0  0  0  0  0  0  0  0  0
    1.2750   -0.8417    0.0000 C   0  0  0  0  0  0  0  0  0  0  0  0
    2.7042   -0.8417    0.0000 C   0  0  0  0  0  0  0  0  0  0  0  0
    5.5625   -0.8292    0.0000 C   0  0  0  0  0  0  0  0  0  0  0  0
   -1.5833   -0.8417    0.0000 C   0  0  0  0  0  0  0  0  0  0  0  0
    1.9875   -0.4292    0.0000 C   0  0  0  0  0  0  0  0  0  0  0  0
    6.2625    0.4125    0.0000 C   0  0  0  0  0  0  0  0  0  0  0  0
   -2.2958    0.3958    0.0000 C   0  0  0  0  0  0  0  0  0  0  0  0
    3.4167   -0.4250    0.0000 N   0  0  0  0  0  0  0  0  0  0  0  0
    0.5625   -0.4292    0.0000 N   0  0  0  0  0  0  0  0  0  0  0  0
   -0.8708   -0.4292    0.0000 N   0  0  0  0  0  0  0  0  0  0  0  0
    4.8417   -0.4167    0.0000 N   0  0  0  0  0  0  0  0  0  0  0  0
    1.9875   -2.0792    0.0000 C   0  0  0  0  0  0  0  0  0  0  0  0
    1.2750   -1.6667    0.0000 C   0  0  0  0  0  0  0  0  0  0  0  0
    2.7042   -1.6667    0.0000 C   0  0  0  0  0  0  0  0  0  0  0  0
   -0.1583   -1.6667    0.0000 O   0  0  0  0  0  0  0  0  0  0  0  0
    4.1500   -1.5000    0.0000 O   0  0  0  0  0  0  0  0  0  0  0  0
    5.5417    0.8208    0.0000 O   0  0  0  0  0  0  0  0  0  0  0  0
   -1.5833    0.8083    0.0000 O   0  0  0  0  0  0  0  0  0  0  0  0
    6.9667    0.8333    0.0000 N   0  0  0  0  0  0  0  0  0  0  0  0
   -3.0083    0.8083    0.0000 N   0  0  0  0  0  0  0  0  0  0  0  0
    0.5542   -2.0792    0.0000 Br  0  0  0  0  0  0  0  0  0  0  0  0
    3.4167   -2.0792    0.0000 Br  0  0  0  0  0  0  0  0  0  0  0  0
    6.9792   -0.8167    0.0000 C   0  0  0  0  0  0  0  0  0  0  0  0
   -3.0083   -0.8417    0.0000 C   0  0  0  0  0  0  0  0  0  0  0  0
    5.5625   -1.6542    0.0000 C   0  0  0  0  0  0  0  0  0  0  0  0
   -1.5833   -1.6667    0.0000 C   0  0  0  0  0  0  0  0  0  0  0  0
   -3.0083   -1.6667    0.0000 C   0  0  0  0  0  0  0  0  0  0  0  0
    6.9917   -1.6417    0.0000 C   0  0  0  0  0  0  0  0  0  0  0  0
   -2.2958   -2.0792    0.0000 C   0  0  0  0  0  0  0  0  0  0  0  0
    6.2750   -2.0625    0.0000 C   0  0  0  0  0  0  0  0  0  0  0  0
  2 13  1  0  0  0  0
  3  7  1  0  0  0  0
  4  8  2  0  0  0  0
  5  9  1  0  0  0  0
  6 12  1  0  0  0  0
  7 15  1  0  0  0  0
  8 14  1  0  0  0  0
  9  6  2  0  0  0  0
 10  3  1  0  0  0  0
 11  4  1  0  0  0  0
 12  1  1  0  0  0  0
 13  5  1  0  0  0  0
 14  2  1  0  0  0  0
 15  1  1  0  0  0  0
 16 18  2  0  0  0  0
 17 16  1  0  0  0  0
 18  6  1  0  0  0  0
 19  2  2  0  0  0  0
 20  1  2  0  0  0  0
 21 10  2  0  0  0  0
 22 11  2  0  0  0  0
 23 10  1  0  0  0  0
 24 11  1  0  0  0  0
 25 17  1  0  0  0  0
 26 18  1  0  0  0  0
 27  3  2  0  0  0  0
 28  4  1  0  0  0  0
 29  7  2  0  0  0  0
 30  8  1  0  0  0  0
 31 33  1  0  0  0  0
 32 34  2  0  0  0  0
 33 30  2  0  0  0  0
 34 29  1  0  0  0  0
 32 27  1  0  0  0  0
 17  5  2  0  0  0  0
 31 28  2  0  0  0  0
M  END
>  <Mol Weight>
590.224

>  <Formula>
C22H18Br2N6O4

>  <chembl_id>
CHEMBL13693

$$$$

  Mrv0541 06201412482D          

 43 45  0  0  1  0            999 V2000
    2.0292   -1.1125    0.0000 C   0  0  0  0  0  0  0  0  0  0  0  0
    1.3167   -1.5292    0.0000 O   0  0  0  0  0  0  0  0  0  0  0  0
    0.6000   -0.2917    0.0000 C   0  0  0  0  0  0  0  0  0  0  0  0
    4.1667    0.1375    0.0000 N   0  0  0  0  0  0  0  0  0  0  0  0
    4.8917   -1.0917    0.0000 C   0  0  0  0  0  0  0  0  0  0  0  0
    0.6042   -1.1167    0.0000 C   0  0  2  0  0  0  0  0  0  0  0  0
    4.1792   -1.5125    0.0000 N   0  0  0  0  0  0  0  0  0  0  0  0
    4.8875   -0.2667    0.0000 C   0  0  1  0  0  0  0  0  0  0  0  0
    1.3125    0.1208    0.0000 O   0  0  0  0  0  0  0  0  0  0  0  0
    2.7500   -1.5167    0.0000 C   0  0  2  0  0  0  0  0  0  0  0  0
    4.1625    0.9625    0.0000 C   0  0  0  0  0  0  0  0  0  0  0  0
   -0.1208    0.9375    0.0000 C   0  0  0  0  0  0  0  0  0  0  0  0
   -0.8375    0.5333    0.0000 C   0  0  0  0  0  0  0  0  0  0  0  0
    3.4625   -1.1042    0.0000 C   0  0  0  0  0  0  0  0  0  0  0  0
    2.0292   -0.2875    0.0000 O   0  0  0  0  0  0  0  0  0  0  0  0
   -0.1208    0.1208    0.0000 O   0  0  0  0  0  0  0  0  0  0  0  0
    3.4417    1.3708    0.0000 C   0  0  0  0  0  0  0  0  0  0  0  0
    5.5917    0.1458    0.0000 C   0  0  0  0  0  0  0  0  0  0  0  0
    5.6042   -1.5042    0.0000 O   0  0  0  0  0  0  0  0  0  0  0  0
    2.7292    0.9583    0.0000 C   0  0  0  0  0  0  0  0  0  0  0  0
   -0.1083   -1.5292    0.0000 C   0  0  0  0  0  0  0  0  0  0  0  0
    4.8750    1.3833    0.0000 O   0  0  0  0  0  0  0  0  0  0  0  0
    6.3125   -0.2625    0.0000 C   0  0  0  0  0  0  0  0  0  0  0  0
    1.3042    0.9458    0.0000 C   0  0  2  0  0  0  0  0  0  0  0  0
   -1.5583    0.1208    0.0000 C   0  0  0  0  0  0  0  0  0  0  0  0
    7.7417   -1.0792    0.0000 C   0  0  0  0  0  0  0  0  0  0  0  0
    0.5917    1.3583    0.0000 C   0  0  0  0  0  0  0  0  0  0  0  0
    6.3167   -1.0875    0.0000 C   0  0  0  0  0  0  0  0  0  0  0  0
    7.0167    0.1583    0.0000 C   0  0  0  0  0  0  0  0  0  0  0  0
    7.7375   -0.2500    0.0000 C   0  0  0  0  0  0  0  0  0  0  0  0
    7.0292   -1.4917    0.0000 C   0  0  0  0  0  0  0  0  0  0  0  0
    8.4625   -1.4875    0.0000 O   0  0  0  0  0  0  0  0  0  0  0  0
    2.7542   -2.3417    0.0000 C   0  0  0  0  0  0  0  0  0  0  0  0
    2.0167    1.3625    0.0000 C   0  0  0  0  0  0  0  0  0  0  0  0
   -0.1083   -2.3542    0.0000 C   0  0  0  0  0  0  0  0  0  0  0  0
   -2.2708    0.5458    0.0000 C   0  0  0  0  0  0  0  0  0  0  0  0
   -1.5583   -0.6917    0.0000 C   0  0  0  0  0  0  0  0  0  0  0  0
    8.4667   -2.3125    0.0000 C   0  0  0  0  0  0  0  0  0  0  0  0
   -0.8208   -2.7750    0.0000 C   0  0  0  0  0  0  0  0  0  0  0  0
    0.6125   -2.7667    0.0000 C   0  0  0  0  0  0  0  0  0  0  0  0
   -2.2708   -1.1042    0.0000 C   0  0  0  0  0  0  0  0  0  0  0  0
   -2.9833    0.1333    0.0000 C   0  0  0  0  0  0  0  0  0  0  0  0
   -2.9875   -0.6917    0.0000 C   0  0  0  0  0  0  0  0  0  0  0  0
  2  1  1  0  0  0  0
  3  6  1  0  0  0  0
  4  8  1  0  0  0  0
  5  7  1  0  0  0  0
  6  2  1  0  0  0  0
  7 14  1  0  0  0  0
  8  5  1  0  0  0  0
  9  3  1  0  0  0  0
 10  1  1  0  0  0  0
 11  4  1  0  0  0  0
 12 27  1  0  0  0  0
 13 12  3  0  0  0  0
 14 10  1  0  0  0  0
 15  1  2  0  0  0  0
 16  3  2  0  0  0  0
 17 11  1  0  0  0  0
  8 18  1  6  0  0  0
 19  5  2  0  0  0  0
 20 34  1  0  0  0  0
  6 21  1  1  0  0  0
 22 11  2  0  0  0  0
 23 18  1  0  0  0  0
 24  9  1  0  0  0  0
 25 13  1  0  0  0  0
 26 30  1  0  0  0  0
 24 27  1  6  0  0  0
 28 23  2  0  0  0  0
 29 23  1  0  0  0  0
 30 29  2  0  0  0  0
 31 28  1  0  0  0  0
 32 26  1  0  0  0  0
 10 33  1  6  0  0  0
 34 24  1  0  0  0  0
 35 21  1  0  0  0  0
 36 25  2  0  0  0  0
 37 25  1  0  0  0  0
 38 32  1  0  0  0  0
 39 35  1  0  0  0  0
 40 35  1  0  0  0  0
 41 37  2  0  0  0  0
 42 36  1  0  0  0  0
 43 41  1  0  0  0  0
 17 20  2  0  0  0  0
 26 31  2  0  0  0  0
 43 42  2  0  0  0  0
M  END
>  <Mol Weight>
588.6906

>  <Formula>
C34H40N2O7

>  <chembl_id>
CHEMBL13720

$$$$

  Mrv0541 06201412482D          

 43 45  0  0  0  0            999 V2000
    9.9186  -10.5770    0.0000 C   0  0  0  0  0  0  0  0  0  0  0  0
    9.9061  -11.4064    0.0000 N   0  0  0  0  0  0  0  0  0  0  0  0
    5.6428   -3.1881    0.0000 C   0  0  0  0  0  0  0  0  0  0  0  0
    6.3554   -2.7755    0.0000 C   0  0  0  0  0  0  0  0  0  0  0  0
   10.6437  -10.1769    0.0000 O   0  0  0  0  0  0  0  0  0  0  0  0
    4.9259   -2.7797    0.0000 C   0  0  0  0  0  0  0  0  0  0  0  0
    7.0680   -3.1881    0.0000 C   0  0  0  0  0  0  0  0  0  0  0  0
    6.3429   -1.9546    0.0000 C   0  0  0  0  0  0  0  0  0  0  0  0
    2.0671   -4.4383    0.0000 O   0  0  0  0  0  0  0  0  0  0  0  0
    4.2133   -3.1923    0.0000 C   0  0  0  0  0  0  0  0  0  0  0  0
    5.6428   -4.0050    0.0000 S   0  0  0  0  0  0  0  0  0  0  0  0
    2.7797   -4.0258    0.0000 C   0  0  0  0  0  0  0  0  0  0  0  0
    7.7807   -1.9421    0.0000 C   0  0  0  0  0  0  0  0  0  0  0  0
    1.3545   -4.0258    0.0000 C   0  0  0  0  0  0  0  0  0  0  0  0
    7.7807   -2.7672    0.0000 C   0  0  0  0  0  0  0  0  0  0  0  0
    7.0555   -1.5378    0.0000 C   0  0  0  0  0  0  0  0  0  0  0  0
    3.4924   -2.7797    0.0000 C   0  0  0  0  0  0  0  0  0  0  0  0
    4.2133   -4.0258    0.0000 C   0  0  0  0  0  0  0  0  0  0  0  0
    2.7797   -3.2006    0.0000 C   0  0  0  0  0  0  0  0  0  0  0  0
    3.4924   -4.4383    0.0000 C   0  0  0  0  0  0  0  0  0  0  0  0
    0.6376   -4.4383    0.0000 C   0  0  0  0  0  0  0  0  0  0  0  0
    8.4891   -1.5295    0.0000 O   0  0  0  0  0  0  0  0  0  0  0  0
    9.2142  -10.1644    0.0000 C   0  0  0  0  0  0  0  0  0  0  0  0
   10.6187  -11.8272    0.0000 C   0  0  0  0  0  0  0  0  0  0  0  0
    9.1809  -11.8064    0.0000 C   0  0  0  0  0  0  0  0  0  0  0  0
    6.3554   -4.4175    0.0000 C   0  0  0  0  0  0  0  0  0  0  0  0
   -0.0750   -4.0175    0.0000 C   0  0  0  0  0  0  0  0  0  0  0  0
    0.6418   -5.2552    0.0000 C   0  0  0  0  0  0  0  0  0  0  0  0
    8.4808   -0.7043    0.0000 C   0  0  0  0  0  0  0  0  0  0  0  0
    9.2142   -9.3435    0.0000 C   0  0  0  0  0  0  0  0  0  0  0  0
   10.6062  -12.6441    0.0000 C   0  0  0  0  0  0  0  0  0  0  0  0
    6.3637   -5.2427    0.0000 C   0  0  0  0  0  0  0  0  0  0  0  0
   11.3146  -13.0775    0.0000 C   0  0  0  0  0  0  0  0  0  0  0  0
    7.0763   -6.4679    0.0000 C   0  0  0  0  0  0  0  0  0  0  0  0
    7.7890   -6.8805    0.0000 C   0  0  0  0  0  0  0  0  0  0  0  0
    7.7890   -7.7015    0.0000 C   0  0  0  0  0  0  0  0  0  0  0  0
    8.5016   -8.1057    0.0000 C   0  0  0  0  0  0  0  0  0  0  0  0
    8.5016   -8.9309    0.0000 C   0  0  0  0  0  0  0  0  0  0  0  0
    7.0763   -5.6511    0.0000 C   0  0  0  0  0  0  0  0  0  0  0  0
   11.3021  -13.9026    0.0000 C   0  0  0  0  0  0  0  0  0  0  0  0
   -0.0708   -5.6678    0.0000 C   0  0  0  0  0  0  0  0  0  0  0  0
   -0.7876   -4.4300    0.0000 C   0  0  0  0  0  0  0  0  0  0  0  0
   -0.7876   -5.2552    0.0000 C   0  0  0  0  0  0  0  0  0  0  0  0
  2  1  1  0  0  0  0
  3 11  1  0  0  0  0
  4  3  1  0  0  0  0
  5  1  2  0  0  0  0
  6  3  1  0  0  0  0
  7  4  2  0  0  0  0
  8  4  1  0  0  0  0
  9 12  1  0  0  0  0
 10  6  1  0  0  0  0
 11 26  1  0  0  0  0
 12 20  1  0  0  0  0
 13 16  1  0  0  0  0
 14  9  1  0  0  0  0
 15  7  1  0  0  0  0
 16  8  2  0  0  0  0
 17 10  2  0  0  0  0
 18 10  1  0  0  0  0
 19 17  1  0  0  0  0
 20 18  2  0  0  0  0
 21 14  1  0  0  0  0
 22 13  1  0  0  0  0
 23  1  1  0  0  0  0
 24  2  1  0  0  0  0
 25  2  1  0  0  0  0
 26 32  1  0  0  0  0
 27 21  2  0  0  0  0
 28 21  1  0  0  0  0
 29 22  1  0  0  0  0
 30 23  1  0  0  0  0
 31 24  1  0  0  0  0
 32 39  1  0  0  0  0
 33 31  1  0  0  0  0
 34 35  1  0  0  0  0
 35 36  1  0  0  0  0
 36 37  1  0  0  0  0
 37 38  1  0  0  0  0
 38 30  1  0  0  0  0
 39 34  1  0  0  0  0
 40 33  1  0  0  0  0
 41 28  2  0  0  0  0
 42 27  1  0  0  0  0
 43 41  1  0  0  0  0
 13 15  2  0  0  0  0
 12 19  2  0  0  0  0
 43 42  2  0  0  0  0
M  END
>  <Mol Weight>
603.897

>  <Formula>
C38H53NO3S

>  <chembl_id>
CHEMBL13857

$$$$

  Mrv0541 06201412482D          

 44 46  0  0  1  0            999 V2000
    2.0292   -1.1125    0.0000 C   0  0  0  0  0  0  0  0  0  0  0  0
    0.6000   -0.2917    0.0000 C   0  0  0  0  0  0  0  0  0  0  0  0
    1.3167   -1.5292    0.0000 O   0  0  0  0  0  0  0  0  0  0  0  0
    1.3125    0.1208    0.0000 O   0  0  0  0  0  0  0  0  0  0  0  0
    4.1667    0.1375    0.0000 N   0  0  0  0  0  0  0  0  0  0  0  0
    4.8917   -1.0917    0.0000 C   0  0  0  0  0  0  0  0  0  0  0  0
   -0.1208    0.9375    0.0000 C   0  0  0  0  0  0  0  0  0  0  0  0
    0.6042   -1.1167    0.0000 C   0  0  1  0  0  0  0  0  0  0  0  0
    4.1792   -1.5125    0.0000 N   0  0  0  0  0  0  0  0  0  0  0  0
    4.8875   -0.2667    0.0000 C   0  0  1  0  0  0  0  0  0  0  0  0
   -0.8375    0.5333    0.0000 C   0  0  0  0  0  0  0  0  0  0  0  0
    2.7500   -1.5167    0.0000 C   0  0  2  0  0  0  0  0  0  0  0  0
    4.1625    0.9625    0.0000 C   0  0  0  0  0  0  0  0  0  0  0  0
    1.3042    0.9458    0.0000 C   0  0  2  0  0  0  0  0  0  0  0  0
    3.4625   -1.1042    0.0000 C   0  0  0  0  0  0  0  0  0  0  0  0
    0.5917    1.3583    0.0000 C   0  0  0  0  0  0  0  0  0  0  0  0
    2.0292   -0.2875    0.0000 O   0  0  0  0  0  0  0  0  0  0  0  0
   -0.1208    0.1208    0.0000 O   0  0  0  0  0  0  0  0  0  0  0  0
    3.4417    1.3708    0.0000 C   0  0  0  0  0  0  0  0  0  0  0  0
    5.5917    0.1458    0.0000 C   0  0  0  0  0  0  0  0  0  0  0  0
    5.6042   -1.5042    0.0000 O   0  0  0  0  0  0  0  0  0  0  0  0
    2.7292    0.9583    0.0000 C   0  0  0  0  0  0  0  0  0  0  0  0
   -0.1083   -1.5292    0.0000 C   0  0  0  0  0  0  0  0  0  0  0  0
    4.8750    1.3833    0.0000 O   0  0  0  0  0  0  0  0  0  0  0  0
   -1.5583    0.1208    0.0000 C   0  0  0  0  0  0  0  0  0  0  0  0
    6.3125   -0.2625    0.0000 C   0  0  0  0  0  0  0  0  0  0  0  0
    7.7417   -1.0792    0.0000 C   0  0  0  0  0  0  0  0  0  0  0  0
    2.0167    1.3625    0.0000 C   0  0  0  0  0  0  0  0  0  0  0  0
    6.3167   -1.0875    0.0000 C   0  0  0  0  0  0  0  0  0  0  0  0
    7.0167    0.1583    0.0000 C   0  0  0  0  0  0  0  0  0  0  0  0
    7.7375   -0.2500    0.0000 C   0  0  0  0  0  0  0  0  0  0  0  0
    7.0292   -1.4917    0.0000 C   0  0  0  0  0  0  0  0  0  0  0  0
    0.5792    2.1833    0.0000 O   0  0  0  0  0  0  0  0  0  0  0  0
    8.4625   -1.4875    0.0000 O   0  0  0  0  0  0  0  0  0  0  0  0
    2.7542   -2.3417    0.0000 C   0  0  0  0  0  0  0  0  0  0  0  0
   -0.1083   -2.3542    0.0000 C   0  0  0  0  0  0  0  0  0  0  0  0
   -2.2708    0.5458    0.0000 C   0  0  0  0  0  0  0  0  0  0  0  0
   -1.5583   -0.6917    0.0000 C   0  0  0  0  0  0  0  0  0  0  0  0
    8.4667   -2.3125    0.0000 C   0  0  0  0  0  0  0  0  0  0  0  0
    0.6125   -2.7667    0.0000 C   0  0  0  0  0  0  0  0  0  0  0  0
   -0.8208   -2.7750    0.0000 C   0  0  0  0  0  0  0  0  0  0  0  0
   -2.2708   -1.1042    0.0000 C   0  0  0  0  0  0  0  0  0  0  0  0
   -2.9833    0.1333    0.0000 C   0  0  0  0  0  0  0  0  0  0  0  0
   -2.9875   -0.6917    0.0000 C   0  0  0  0  0  0  0  0  0  0  0  0
  2  8  1  0  0  0  0
  3  1  1  0  0  0  0
  4  2  1  0  0  0  0
  5 10  1  0  0  0  0
  6  9  1  0  0  0  0
  7 16  1  0  0  0  0
  8  3  1  0  0  0  0
  9 15  1  0  0  0  0
 10  6  1  0  0  0  0
 11  7  3  0  0  0  0
 12  1  1  0  0  0  0
 13  5  1  0  0  0  0
 14  4  1  0  0  0  0
 15 12  1  0  0  0  0
 14 16  1  6  0  0  0
 17  1  2  0  0  0  0
 18  2  2  0  0  0  0
 19 13  1  0  0  0  0
 10 20  1  6  0  0  0
 21  6  2  0  0  0  0
 22 28  1  0  0  0  0
  8 23  1  1  0  0  0
 24 13  2  0  0  0  0
 25 11  1  0  0  0  0
 26 20  1  0  0  0  0
 27 31  1  0  0  0  0
 28 14  1  0  0  0  0
 29 26  2  0  0  0  0
 30 26  1  0  0  0  0
 31 30  2  0  0  0  0
 32 29  1  0  0  0  0
 33 16  1  0  0  0  0
 34 27  1  0  0  0  0
 12 35  1  6  0  0  0
 36 23  1  0  0  0  0
 37 25  2  0  0  0  0
 38 25  1  0  0  0  0
 39 34  1  0  0  0  0
 40 36  1  0  0  0  0
 41 36  1  0  0  0  0
 42 38  2  0  0  0  0
 43 37  1  0  0  0  0
 44 42  1  0  0  0  0
 19 22  2  0  0  0  0
 27 32  2  0  0  0  0
 44 43  2  0  0  0  0
M  END
>  <Mol Weight>
604.69

>  <Formula>
C34H40N2O8

>  <chembl_id>
CHEMBL13537

$$$$

  Mrv0541 06201412482D          

 43 45  0  0  1  0            999 V2000
    2.4417   -1.3375    0.0000 C   0  0  0  0  0  0  0  0  0  0  0  0
    3.1542   -0.9167    0.0000 O   0  0  0  0  0  0  0  0  0  0  0  0
    6.0167   -0.9042    0.0000 N   0  0  0  0  0  0  0  0  0  0  0  0
    1.7250   -0.1042    0.0000 C   0  0  0  0  0  0  0  0  0  0  0  0
    3.1667   -2.5667    0.0000 O   0  0  0  0  0  0  0  0  0  0  0  0
    6.7375   -2.1375    0.0000 C   0  0  0  0  0  0  0  0  0  0  0  0
    2.4417   -2.1625    0.0000 C   0  0  1  0  0  0  0  0  0  0  0  0
    6.7292   -1.3125    0.0000 C   0  0  1  0  0  0  0  0  0  0  0  0
    1.0042   -0.5125    0.0000 C   0  0  0  0  0  0  0  0  0  0  0  0
    6.0042   -0.0792    0.0000 C   0  0  0  0  0  0  0  0  0  0  0  0
    3.8792   -2.1542    0.0000 C   0  0  0  0  0  0  0  0  0  0  0  0
    6.0250   -2.5542    0.0000 N   0  0  0  0  0  0  0  0  0  0  0  0
    3.1542   -0.0917    0.0000 C   0  0  2  0  0  0  0  0  0  0  0  0
    2.4375    0.3125    0.0000 C   0  0  0  0  0  0  0  0  0  0  0  0
    1.7292   -0.9250    0.0000 O   0  0  0  0  0  0  0  0  0  0  0  0
    5.2917    0.3333    0.0000 C   0  0  0  0  0  0  0  0  0  0  0  0
    7.4417   -0.8917    0.0000 C   0  0  0  0  0  0  0  0  0  0  0  0
    4.5917   -2.5625    0.0000 C   0  0  0  0  0  0  0  0  0  0  0  0
    7.4542   -2.5417    0.0000 O   0  0  0  0  0  0  0  0  0  0  0  0
    4.5792   -0.0875    0.0000 C   0  0  0  0  0  0  0  0  0  0  0  0
    1.7375   -2.5750    0.0000 C   0  0  0  0  0  0  0  0  0  0  0  0
    6.7167    0.3375    0.0000 O   0  0  0  0  0  0  0  0  0  0  0  0
    3.8750   -1.3292    0.0000 O   0  0  0  0  0  0  0  0  0  0  0  0
    5.3042   -2.1417    0.0000 C   0  0  0  0  0  0  0  0  0  0  0  0
    0.2917   -0.9167    0.0000 C   0  0  0  0  0  0  0  0  0  0  0  0
    8.1542   -1.3042    0.0000 C   0  0  0  0  0  0  0  0  0  0  0  0
    9.5917   -2.1167    0.0000 C   0  0  0  0  0  0  0  0  0  0  0  0
    3.8625    0.3208    0.0000 C   0  0  0  0  0  0  0  0  0  0  0  0
    8.1625   -2.1292    0.0000 C   0  0  0  0  0  0  0  0  0  0  0  0
    8.8667   -0.8875    0.0000 C   0  0  0  0  0  0  0  0  0  0  0  0
    9.5792   -1.2917    0.0000 C   0  0  0  0  0  0  0  0  0  0  0  0
    8.8792   -2.5375    0.0000 C   0  0  0  0  0  0  0  0  0  0  0  0
    2.4292    1.1375    0.0000 O   0  0  0  0  0  0  0  0  0  0  0  0
   10.3042   -2.5292    0.0000 O   0  0  0  0  0  0  0  0  0  0  0  0
    1.7417   -3.4000    0.0000 C   0  0  0  0  0  0  0  0  0  0  0  0
    0.2875   -1.7375    0.0000 C   0  0  0  0  0  0  0  0  0  0  0  0
   -0.4208   -0.5000    0.0000 C   0  0  0  0  0  0  0  0  0  0  0  0
   10.3125   -3.3542    0.0000 C   0  0  0  0  0  0  0  0  0  0  0  0
    1.0292   -3.8167    0.0000 C   0  0  0  0  0  0  0  0  0  0  0  0
    2.4542   -3.8042    0.0000 C   0  0  0  0  0  0  0  0  0  0  0  0
   -1.1375   -0.9042    0.0000 C   0  0  0  0  0  0  0  0  0  0  0  0
   -0.4250   -2.1500    0.0000 C   0  0  0  0  0  0  0  0  0  0  0  0
   -1.1458   -1.7292    0.0000 C   0  0  0  0  0  0  0  0  0  0  0  0
  2  1  1  0  0  0  0
  3 10  1  0  0  0  0
  4 14  1  0  0  0  0
  5  7  1  0  0  0  0
  6 12  1  0  0  0  0
  7  1  1  0  0  0  0
  8  6  1  0  0  0  0
  9  4  3  0  0  0  0
 10 16  1  0  0  0  0
 11  5  1  0  0  0  0
 12 24  1  0  0  0  0
 13  2  1  0  0  0  0
 13 14  1  6  0  0  0
 15  1  2  0  0  0  0
 16 20  2  0  0  0  0
  8 17  1  6  0  0  0
 18 11  1  0  0  0  0
 19  6  2  0  0  0  0
 20 28  1  0  0  0  0
  7 21  1  1  0  0  0
 22 10  2  0  0  0  0
 23 11  2  0  0  0  0
 24 18  1  0  0  0  0
 25  9  1  0  0  0  0
 26 17  1  0  0  0  0
 27 31  1  0  0  0  0
 28 13  1  0  0  0  0
 29 26  2  0  0  0  0
 30 26  1  0  0  0  0
 31 30  2  0  0  0  0
 32 29  1  0  0  0  0
 33 14  1  0  0  0  0
 34 27  1  0  0  0  0
 35 21  1  0  0  0  0
 36 25  1  0  0  0  0
 37 25  2  0  0  0  0
 38 34  1  0  0  0  0
 39 35  1  0  0  0  0
 40 35  1  0  0  0  0
 41 37  1  0  0  0  0
 42 36  2  0  0  0  0
 43 41  2  0  0  0  0
  8  3  1  0  0  0  0
 43 42  1  0  0  0  0
 27 32  2  0  0  0  0
M  END
>  <Mol Weight>
590.6634

>  <Formula>
C33H38N2O8

>  <chembl_id>
CHEMBL13538

$$$$

  Mrv0541 06201412482D          

 43 43  0  0  1  0            999 V2000
    5.0928   -3.4086    0.0000 C   0  0  0  0  0  0  0  0  0  0  0  0
    5.8088   -2.9961    0.0000 N   0  0  0  0  0  0  0  0  0  0  0  0
    7.2410   -3.0133    0.0000 C   0  0  0  0  0  0  0  0  0  0  0  0
    7.9399   -6.7254    0.0000 C   0  0  0  0  0  0  0  0  0  0  0  0
    9.3835   -3.4429    0.0000 C   0  0  0  0  0  0  0  0  0  0  0  0
    7.9571   -3.4258    0.0000 N   0  0  0  0  0  0  0  0  0  0  0  0
    6.5192   -3.4258    0.0000 C   0  0  1  0  0  0  0  0  0  0  0  0
    4.3710   -2.9961    0.0000 C   0  0  2  0  0  0  0  0  0  0  0  0
   10.1053   -3.0305    0.0000 N   0  0  0  0  0  0  0  0  0  0  0  0
    8.6503   -7.1551    0.0000 N   0  0  0  0  0  0  0  0  0  0  0  0
    8.6674   -3.0133    0.0000 C   0  0  0  0  0  0  0  0  0  0  0  0
   13.8404   -8.6331    0.0000 C   0  0  0  0  0  0  0  0  0  0  0  0
    5.0870   -4.2335    0.0000 O   0  0  0  0  0  0  0  0  0  0  0  0
    7.2410   -2.1884    0.0000 O   0  0  0  0  0  0  0  0  0  0  0  0
    9.3835   -4.2679    0.0000 O   0  0  0  0  0  0  0  0  0  0  0  0
    4.3824   -2.1712    0.0000 C   0  0  0  0  0  0  0  0  0  0  0  0
   10.8157   -3.4429    0.0000 C   0  0  0  0  0  0  0  0  0  0  0  0
   12.2421   -3.4429    0.0000 C   0  0  0  0  0  0  0  0  0  0  0  0
   14.2528   -7.9113    0.0000 O   0  0  0  0  0  0  0  0  0  0  0  0
   12.9581   -3.0477    0.0000 C   0  0  0  0  0  0  0  0  0  0  0  0
   11.5375   -3.0305    0.0000 C   0  0  0  0  0  0  0  0  0  0  0  0
    7.9456   -5.9177    0.0000 N   0  0  0  0  0  0  0  0  0  0  0  0
    7.2181   -7.1379    0.0000 N   0  0  0  0  0  0  0  0  0  0  0  0
    3.6664   -1.7587    0.0000 C   0  0  0  0  0  0  0  0  0  0  0  0
    3.6606   -3.4086    0.0000 N   0  0  0  0  0  0  0  0  0  0  0  0
   12.9581   -2.2227    0.0000 F   0  0  0  0  0  0  0  0  0  0  0  0
    2.2399   -0.9166    0.0000 C   0  0  0  0  0  0  0  0  0  0  0  0
   14.2528   -9.3377    0.0000 O   0  0  0  0  0  0  0  0  0  0  0  0
    2.9446   -2.1540    0.0000 C   0  0  0  0  0  0  0  0  0  0  0  0
    3.6664   -0.9166    0.0000 C   0  0  0  0  0  0  0  0  0  0  0  0
    2.2399   -1.7415    0.0000 C   0  0  0  0  0  0  0  0  0  0  0  0
    2.9617   -0.5042    0.0000 C   0  0  0  0  0  0  0  0  0  0  0  0
    1.5295   -0.5042    0.0000 O   0  0  0  0  0  0  0  0  0  0  0  0
   10.1111   -2.2056    0.0000 C   0  0  0  0  0  0  0  0  0  0  0  0
   13.0155   -8.6331    0.0000 C   0  0  0  0  0  0  0  0  0  0  0  0
    6.5192   -4.2507    0.0000 C   0  0  0  0  0  0  0  0  0  0  0  0
   12.2363   -4.2679    0.0000 C   0  0  0  0  0  0  0  0  0  0  0  0
   13.6685   -3.4601    0.0000 C   0  0  0  0  0  0  0  0  0  0  0  0
    7.2238   -5.4881    0.0000 C   0  0  0  0  0  0  0  0  0  0  0  0
    7.2352   -4.6631    0.0000 C   0  0  0  0  0  0  0  0  0  0  0  0
   10.8271   -1.7931    0.0000 C   0  0  0  0  0  0  0  0  0  0  0  0
   13.6685   -4.2851    0.0000 C   0  0  0  0  0  0  0  0  0  0  0  0
   12.9467   -4.6975    0.0000 C   0  0  0  0  0  0  0  0  0  0  0  0
  2  1  1  0  0  0  0
  3  7  1  0  0  0  0
  4 22  2  0  0  0  0
  5 11  1  0  0  0  0
  6  3  1  0  0  0  0
  7  2  1  0  0  0  0
  8  1  1  0  0  0  0
  9  5  1  0  0  0  0
 10  4  1  0  0  0  0
 11  6  1  0  0  0  0
 13  1  2  0  0  0  0
 14  3  2  0  0  0  0
 15  5  2  0  0  0  0
  8 16  1  1  0  0  0
 17  9  1  0  0  0  0
 18 21  1  0  0  0  0
 19 12  2  0  0  0  0
 20 18  1  0  0  0  0
 21 17  1  0  0  0  0
 22 39  1  0  0  0  0
 23  4  1  0  0  0  0
 24 16  1  0  0  0  0
 25  8  1  0  0  0  0
 26 20  1  0  0  0  0
 27 31  1  0  0  0  0
 28 12  1  0  0  0  0
 29 24  1  0  0  0  0
 30 24  2  0  0  0  0
 31 29  2  0  0  0  0
 32 30  1  0  0  0  0
 33 27  1  0  0  0  0
 34  9  1  0  0  0  0
 35 12  1  0  0  0  0
  7 36  1  1  0  0  0
 37 18  2  0  0  0  0
 38 20  2  0  0  0  0
 39 40  1  0  0  0  0
 40 36  1  0  0  0  0
 41 34  1  0  0  0  0
 42 43  2  0  0  0  0
 43 37  1  0  0  0  0
 32 27  2  0  0  0  0
 38 42  1  0  0  0  0
M  END
>  <Mol Weight>
603.6855

>  <Formula>
C29H42FN7O6

>  <chembl_id>
CHEMBL13652

$$$$
